data/c1/scenario_04/case.raw
0,100.0,33,0,1,60.0
GRID OPTIMIZATION COMPETITION
INPUT DATA FILES ARE RAW ROP INL CON
1,'A1',345.0,1,1,1,1,1.0,0.0,1.1,0.9,1.1,0.9
2,'A2',345.0,1,1,1,1,1.0,0.0,1.1,0.9,1.1,0.9
3,'A3',345.0,1,1,1,1,1.0,0.0,1.1,0.9,1.1,0.9
4,'A4',345.0,1,1,1,1,1.0,0.0,1.1,0.9,1.1,0.9
5,'A5',345.0,1,1,1,1,1.0,0.0,1.1,0.9,1.1,0.9
6,'A6',345.0,1,1,1,1,1.0,0.0,1.1,0.9,1.1,0.9
7,'A7',345.0,1,1,1,1,1.0,0.0,1.1,0.9,1.1,0.9
8,'A8',345.0,1,1,1,1,1.0,0.0,1.1,0.9,1.1,0.9
9,'A9',345.0,2,1,1,1,1.0,0.0,1.1,0.9,1.1,0.9
10,'A10',345.0,2,1,1,1,1.0,0.0,1.1,0.9,1.1,0.9
11,'A11',138.0,2,1,1,1,1.0,0.0,1.1,0.9,1.1,0.9
12,'A12',138.0,2,1,1,1,1.0,0.0,1.1,0.9,1.1,0.9
13,'A13',138.0,1,1,1,1,1.0,0.0,1.1,0.9,1.1,0.9
14,'A14',138.0,1,1,1,1,1.0,0.0,1.1,0.9,1.1,0.9
15,'A15',138.0,1,1,1,1,1.0,0.0,1.1,0.9,1.1,0.9
16,'A16',138.0,1,1,1,1,1.0,0.0,1.1,0.9,1.1,0.9
17,'A17',138.0,1,1,1,1,1.0,0.0,1.1,0.9,1.1,0.9
18,'A18',138.0,1,1,1,1,1.0,0.0,1.1,0.9,1.1,0.9
19,'A19',138.0,1,1,1,1,1.0,0.0,1.1,0.9,1.1,0.9
20,'A20',138.0,1,1,1,1,1.0,0.0,1.1,0.9,1.1,0.9
21,'A21',138.0,1,1,1,1,1.0,0.0,1.1,0.9,1.1,0.9
22,'A22',138.0,1,1,1,1,1.0,0.0,1.1,0.9,1.1,0.9
23,'A23',138.0,1,1,1,1,1.0,0.0,1.1,0.9,1.1,0.9
24,'A24',138.0,2,1,1,1,1.0,0.0,1.1,0.9,1.1,0.9
25,'A25',138.0,1,1,1,1,1.0,0.0,1.1,0.9,1.1,0.9
26,'A26',138.0,2,1,1,1,1.0,0.0,1.1,0.9,1.1,0.9
27,'A27',138.0,1,1,1,1,1.0,0.0,1.1,0.9,1.1,0.9
28,'A28',138.0,1,1,1,1,1.0,0.0,1.1,0.9,1.1,0.9
29,'A29',138.0,1,1,1,1,1.0,0.0,1.1,0.9,1.1,0.9
30,'A30',138.0,1,1,1,1,1.0,0.0,1.1,0.9,1.1,0.9
31,'A31',138.0,1,1,1,1,1.0,0.0,1.1,0.9,1.1,0.9
32,'A32',138.0,1,1,1,1,1.0,0.0,1.1,0.9,1.1,0.9
33,'A33',138.0,1,1,1,1,1.0,0.0,1.1,0.9,1.1,0.9
34,'A34',138.0,1,1,1,1,1.0,0.0,1.1,0.9,1.1,0.9
35,'A35',138.0,1,1,1,1,1.0,0.0,1.1,0.9,1.1,0.9
36,'A36',138.0,1,1,1,1,1.0,0.0,1.1,0.9,1.1,0.9
37,'A37',138.0,1,1,1,1,1.0,0.0,1.1,0.9,1.1,0.9
38,'A38',138.0,1,1,1,1,1.0,0.0,1.1,0.9,1.1,0.9
39,'A39',138.0,1,1,1,1,1.0,0.0,1.1,0.9,1.1,0.9
40,'A40',138.0,1,1,1,1,1.0,0.0,1.1,0.9,1.1,0.9
41,'A41',138.0,1,1,1,1,1.0,0.0,1.1,0.9,1.1,0.9
42,'A42',138.0,1,1,1,1,1.0,0.0,1.1,0.9,1.1,0.9
43,'A43',138.0,1,1,1,1,1.0,0.0,1.1,0.9,1.1,0.9
44,'A44',138.0,1,1,1,1,1.0,0.0,1.1,0.9,1.1,0.9
45,'A45',138.0,1,1,1,1,1.0,0.0,1.1,0.9,1.1,0.9
46,'A46',138.0,2,1,1,1,1.0,0.0,1.1,0.9,1.1,0.9
47,'A47',138.0,1,1,1,1,1.0,0.0,1.1,0.9,1.1,0.9
48,'A48',138.0,1,1,1,1,1.0,0.0,1.1,0.9,1.1,0.9
49,'A49',138.0,1,1,1,1,1.0,0.0,1.1,0.9,1.1,0.9
50,'A50',138.0,1,1,1,1,1.0,0.0,1.1,0.9,1.1,0.9
51,'A51',138.0,1,1,1,1,1.0,0.0,1.1,0.9,1.1,0.9
52,'A52',138.0,1,1,1,1,1.0,0.0,1.1,0.9,1.1,0.9
53,'A53',138.0,1,1,1,1,1.0,0.0,1.1,0.9,1.1,0.9
54,'A54',138.0,1,1,1,1,1.0,0.0,1.1,0.9,1.1,0.9
55,'A55',138.0,1,1,1,1,1.0,0.0,1.1,0.9,1.1,0.9
56,'A56',138.0,1,1,1,1,1.0,0.0,1.1,0.9,1.1,0.9
57,'A57',138.0,1,1,1,1,1.0,0.0,1.1,0.9,1.1,0.9
58,'A58',138.0,1,1,1,1,1.0,0.0,1.1,0.9,1.1,0.9
59,'A59',138.0,1,1,1,1,1.0,0.0,1.1,0.9,1.1,0.9
60,'A60',138.0,1,1,1,1,1.0,0.0,1.1,0.9,1.1,0.9
61,'A61',138.0,1,1,1,1,1.0,0.0,1.1,0.9,1.1,0.9
62,'A62',138.0,1,1,1,1,1.0,0.0,1.1,0.9,1.1,0.9
63,'A63',138.0,1,1,1,1,1.0,0.0,1.1,0.9,1.1,0.9
64,'A64',138.0,1,1,1,1,1.0,0.0,1.1,0.9,1.1,0.9
65,'A65',138.0,1,1,1,1,1.0,0.0,1.1,0.9,1.1,0.9
66,'A66',138.0,1,1,1,1,1.0,0.0,1.1,0.9,1.1,0.9
67,'A67',138.0,1,1,1,1,1.0,0.0,1.1,0.9,1.1,0.9
68,'A68',138.0,2,1,1,1,1.0,0.0,1.1,0.9,1.1,0.9
69,'A69',138.0,1,1,1,1,1.0,0.0,1.1,0.9,1.1,0.9
70,'A70',138.0,1,1,1,1,1.0,0.0,1.1,0.9,1.1,0.9
71,'B71',345.0,1,1,2,1,1.0,0.0,1.1,0.9,1.1,0.9
72,'B72',345.0,1,1,2,1,1.0,0.0,1.1,0.9,1.1,0.9
73,'B73',345.0,1,1,2,1,1.0,0.0,1.1,0.9,1.1,0.9
74,'B74',345.0,1,1,2,1,1.0,0.0,1.1,0.9,1.1,0.9
75,'B75',345.0,2,1,2,1,1.0,0.0,1.1,0.9,1.1,0.9
76,'B76',345.0,2,1,2,1,1.0,0.0,1.1,0.9,1.1,0.9
77,'B77',500.0,2,1,2,1,1.0,0.0,1.1,0.9,1.1,0.9
78,'B78',345.0,2,1,2,1,1.0,0.0,1.1,0.9,1.1,0.9
79,'B79',345.0,1,1,2,1,1.0,0.0,1.1,0.9,1.1,0.9
80,'B80',345.0,1,1,2,1,1.0,0.0,1.1,0.9,1.1,0.9
81,'B81',345.0,1,1,2,1,1.0,0.0,1.1,0.9,1.1,0.9
82,'B82',345.0,1,1,2,1,1.0,0.0,1.1,0.9,1.1,0.9
83,'B83',138.0,1,1,2,1,1.0,0.0,1.1,0.9,1.1,0.9
84,'B84',138.0,1,1,2,1,1.0,0.0,1.1,0.9,1.1,0.9
85,'B85',138.0,1,1,2,1,1.0,0.0,1.1,0.9,1.1,0.9
86,'B86',138.0,1,1,2,1,1.0,0.0,1.1,0.9,1.1,0.9
87,'B87',138.0,1,1,2,1,1.0,0.0,1.1,0.9,1.1,0.9
88,'B88',138.0,1,1,2,1,1.0,0.0,1.1,0.9,1.1,0.9
89,'B89',138.0,1,1,2,1,1.0,0.0,1.1,0.9,1.1,0.9
90,'B90',138.0,1,1,2,1,1.0,0.0,1.1,0.9,1.1,0.9
91,'B91',138.0,1,1,2,1,1.0,0.0,1.1,0.9,1.1,0.9
92,'B92',138.0,2,1,2,1,1.0,0.0,1.1,0.9,1.1,0.9
93,'B93',138.0,1,1,2,1,1.0,0.0,1.1,0.9,1.1,0.9
94,'B94',138.0,1,1,2,1,1.0,0.0,1.1,0.9,1.1,0.9
95,'B95',138.0,2,1,2,1,1.0,0.0,1.1,0.9,1.1,0.9
96,'B96',138.0,1,1,2,1,1.0,0.0,1.1,0.9,1.1,0.9
97,'B97',138.0,1,1,2,1,1.0,0.0,1.1,0.9,1.1,0.9
98,'B98',138.0,2,1,2,1,1.0,0.0,1.1,0.9,1.1,0.9
99,'B99',138.0,2,1,2,1,1.0,0.0,1.1,0.9,1.1,0.9
100,'B100',138.0,1,1,2,1,1.0,0.0,1.1,0.9,1.1,0.9
101,'B101',138.0,1,1,2,1,1.0,0.0,1.1,0.9,1.1,0.9
102,'B102',138.0,1,1,2,1,1.0,0.0,1.1,0.9,1.1,0.9
103,'B103',138.0,1,1,2,1,1.0,0.0,1.1,0.9,1.1,0.9
104,'B104',138.0,1,1,2,1,1.0,0.0,1.1,0.9,1.1,0.9
105,'B105',138.0,1,1,2,1,1.0,0.0,1.1,0.9,1.1,0.9
106,'B106',138.0,1,1,2,1,1.0,0.0,1.1,0.9,1.1,0.9
107,'B107',138.0,1,1,2,1,1.0,0.0,1.1,0.9,1.1,0.9
108,'B108',138.0,1,1,2,1,1.0,0.0,1.1,0.9,1.1,0.9
109,'B109',138.0,1,1,2,1,1.0,0.0,1.1,0.9,1.1,0.9
110,'B110',138.0,1,1,2,1,1.0,0.0,1.1,0.9,1.1,0.9
111,'B111',138.0,1,1,2,1,1.0,0.0,1.1,0.9,1.1,0.9
112,'B112',138.0,2,1,2,1,1.0,0.0,1.1,0.9,1.1,0.9
113,'B113',138.0,1,1,2,1,1.0,0.0,1.1,0.9,1.1,0.9
114,'B114',138.0,1,1,2,1,1.0,0.0,1.1,0.9,1.1,0.9
115,'B115',138.0,1,1,2,1,1.0,0.0,1.1,0.9,1.1,0.9
116,'B116',138.0,1,1,2,1,1.0,0.0,1.1,0.9,1.1,0.9
117,'B117',138.0,1,1,2,1,1.0,0.0,1.1,0.9,1.1,0.9
118,'B118',138.0,1,1,2,1,1.0,0.0,1.1,0.9,1.1,0.9
119,'B119',138.0,1,1,2,1,1.0,0.0,1.1,0.9,1.1,0.9
120,'B120',138.0,2,1,2,1,1.0,0.0,1.1,0.9,1.1,0.9
121,'B121',138.0,1,1,2,1,1.0,0.0,1.1,0.9,1.1,0.9
122,'B122',138.0,1,1,2,1,1.0,0.0,1.1,0.9,1.1,0.9
123,'B123',138.0,1,1,2,1,1.0,0.0,1.1,0.9,1.1,0.9
124,'B124',138.0,1,1,2,1,1.0,0.0,1.1,0.9,1.1,0.9
125,'B125',138.0,2,1,2,1,1.0,0.0,1.1,0.9,1.1,0.9
126,'B126',138.0,1,1,2,1,1.0,0.0,1.1,0.9,1.1,0.9
127,'B127',138.0,2,1,2,1,1.0,0.0,1.1,0.9,1.1,0.9
128,'B128',138.0,2,1,2,1,1.0,0.0,1.1,0.9,1.1,0.9
129,'B129',138.0,1,1,2,1,1.0,0.0,1.1,0.9,1.1,0.9
130,'B130',138.0,1,1,2,1,1.0,0.0,1.1,0.9,1.1,0.9
131,'B131',138.0,1,1,2,1,1.0,0.0,1.1,0.9,1.1,0.9
132,'B132',138.0,1,1,2,1,1.0,0.0,1.1,0.9,1.1,0.9
133,'B133',138.0,1,1,2,1,1.0,0.0,1.1,0.9,1.1,0.9
134,'B134',138.0,1,1,2,1,1.0,0.0,1.1,0.9,1.1,0.9
135,'B135',138.0,2,1,2,1,1.0,0.0,1.1,0.9,1.1,0.9
136,'B136',138.0,1,1,2,1,1.0,0.0,1.1,0.9,1.1,0.9
137,'B137',138.0,1,1,2,1,1.0,0.0,1.1,0.9,1.1,0.9
138,'B138',138.0,2,1,2,1,1.0,0.0,1.1,0.9,1.1,0.9
139,'B139',138.0,1,1,2,1,1.0,0.0,1.1,0.9,1.1,0.9
140,'B140',138.0,1,1,2,1,1.0,0.0,1.1,0.9,1.1,0.9
141,'B141',138.0,1,1,2,1,1.0,0.0,1.1,0.9,1.1,0.9
142,'B142',138.0,1,1,2,1,1.0,0.0,1.1,0.9,1.1,0.9
143,'B143',138.0,1,1,2,1,1.0,0.0,1.1,0.9,1.1,0.9
144,'B144',138.0,1,1,2,1,1.0,0.0,1.1,0.9,1.1,0.9
145,'B145',138.0,1,1,2,1,1.0,0.0,1.1,0.9,1.1,0.9
146,'B146',138.0,1,1,2,1,1.0,0.0,1.1,0.9,1.1,0.9
147,'B147',138.0,1,1,2,1,1.0,0.0,1.1,0.9,1.1,0.9
148,'B148',138.0,1,1,2,1,1.0,0.0,1.1,0.9,1.1,0.9
149,'B149',138.0,1,1,2,1,1.0,0.0,1.1,0.9,1.1,0.9
150,'B150',345.0,2,1,2,1,1.0,0.0,1.1,0.9,1.1,0.9
151,'C151',345.0,1,1,3,1,1.0,0.0,1.1,0.9,1.1,0.9
152,'C152',500.0,1,1,3,1,1.0,0.0,1.1,0.9,1.1,0.9
153,'C153',500.0,1,1,3,1,1.0,0.0,1.1,0.9,1.1,0.9
154,'C154',500.0,1,1,3,1,1.0,0.0,1.1,0.9,1.1,0.9
155,'C155',500.0,1,1,3,1,1.0,0.0,1.1,0.9,1.1,0.9
156,'C156',500.0,1,1,3,1,1.0,0.0,1.1,0.9,1.1,0.9
157,'C157',345.0,1,1,3,1,1.0,0.0,1.1,0.9,1.1,0.9
158,'C158',500.0,1,1,3,1,1.0,0.0,1.1,0.9,1.1,0.9
159,'C159',500.0,1,1,3,1,1.0,0.0,1.1,0.9,1.1,0.9
160,'C160',500.0,1,1,3,1,1.0,0.0,1.1,0.9,1.1,0.9
161,'C161',500.0,1,1,3,1,1.0,0.0,1.1,0.9,1.1,0.9
162,'C162',500.0,1,1,3,1,1.0,0.0,1.1,0.9,1.1,0.9
163,'C163',500.0,1,1,3,1,1.0,0.0,1.1,0.9,1.1,0.9
164,'C164',500.0,1,1,3,1,1.0,0.0,1.1,0.9,1.1,0.9
165,'C165',500.0,2,1,3,1,1.0,0.0,1.1,0.9,1.1,0.9
166,'C166',500.0,2,1,3,1,1.0,0.0,1.1,0.9,1.1,0.9
167,'C167',138.0,1,1,3,1,1.0,0.0,1.1,0.9,1.1,0.9
168,'C168',138.0,2,1,3,1,1.0,0.0,1.1,0.9,1.1,0.9
169,'C169',138.0,1,1,3,1,1.0,0.0,1.1,0.9,1.1,0.9
170,'C170',138.0,1,1,3,1,1.0,0.0,1.1,0.9,1.1,0.9
171,'C171',138.0,2,1,3,1,1.0,0.0,1.1,0.9,1.1,0.9
172,'C172',138.0,1,1,3,1,1.0,0.0,1.1,0.9,1.1,0.9
173,'C173',32.0,1,1,3,1,1.0,0.0,1.1,0.9,1.1,0.9
174,'C174',138.0,1,1,3,1,1.0,0.0,1.1,0.9,1.1,0.9
175,'C175',138.0,1,1,3,1,1.0,0.0,1.1,0.9,1.1,0.9
176,'C176',138.0,1,1,3,1,1.0,0.0,1.1,0.9,1.1,0.9
177,'C177',138.0,2,1,3,1,1.0,0.0,1.1,0.9,1.1,0.9
178,'C178',138.0,2,1,3,1,1.0,0.0,1.1,0.9,1.1,0.9
179,'C179',138.0,1,1,3,1,1.0,0.0,1.1,0.9,1.1,0.9
180,'C180',138.0,1,1,3,1,1.0,0.0,1.1,0.9,1.1,0.9
181,'C181',138.0,1,1,3,1,1.0,0.0,1.1,0.9,1.1,0.9
182,'C182',138.0,1,1,3,1,1.0,0.0,1.1,0.9,1.1,0.9
183,'C183',138.0,2,1,3,1,1.0,0.0,1.1,0.9,1.1,0.9
184,'C184',138.0,1,1,3,1,1.0,0.0,1.1,0.9,1.1,0.9
185,'C185',138.0,2,1,3,1,1.0,0.0,1.1,0.9,1.1,0.9
186,'C186',138.0,1,1,3,1,1.0,0.0,1.1,0.9,1.1,0.9
187,'C187',16.0,1,1,3,1,1.0,0.0,1.1,0.9,1.1,0.9
188,'C188',138.0,2,1,3,1,1.0,0.0,1.1,0.9,1.1,0.9
189,'C189',138.0,1,1,3,1,1.0,0.0,1.1,0.9,1.1,0.9
190,'C190',138.0,1,1,3,1,1.0,0.0,1.1,0.9,1.1,0.9
191,'C191',138.0,1,1,3,1,1.0,0.0,1.1,0.9,1.1,0.9
192,'C192',138.0,1,1,3,1,1.0,0.0,1.1,0.9,1.1,0.9
193,'C193',138.0,1,1,3,1,1.0,0.0,1.1,0.9,1.1,0.9
194,'C194',138.0,2,1,3,1,1.0,0.0,1.1,0.9,1.1,0.9
195,'C195',138.0,2,1,3,1,1.0,0.0,1.1,0.9,1.1,0.9
196,'C196',138.0,1,1,3,1,1.0,0.0,1.1,0.9,1.1,0.9
197,'C197',138.0,1,1,3,1,1.0,0.0,1.1,0.9,1.1,0.9
198,'C198',138.0,1,1,3,1,1.0,0.0,1.1,0.9,1.1,0.9
199,'C199',138.0,1,1,3,1,1.0,0.0,1.1,0.9,1.1,0.9
200,'C200',138.0,1,1,3,1,1.0,0.0,1.1,0.9,1.1,0.9
...
0 / END OF BUS DATA BEGIN LOAD DATA
2,'99',0,1,1,4.336,-2.457,0.0,0.0,0.0,0.0,1,1,0
3,'1',1,1,1,0.919,0.631,0.0,0.0,0.0,0.0,1,1,0
4,'99',0,1,1,8.88,-3.219,0.0,0.0,0.0,0.0,1,1,0
6,'99',0,1,1,26.279,13.647,0.0,0.0,0.0,0.0,1,1,0
9,'1',1,1,1,6.014,12.297,0.0,0.0,0.0,0.0,1,1,0
9,'99',1,1,1,67.109,-46.546,0.0,0.0,0.0,0.0,1,1,0
10,'1',1,1,1,13.721,24.127,0.0,0.0,0.0,0.0,1,1,0
11,'1',1,1,1,4.134,2.482,0.0,0.0,0.0,0.0,1,1,0
12,'1',1,1,1,0.661,1.322,0.0,0.0,0.0,0.0,1,1,0
12,'99',1,1,1,6.275,2.211,0.0,0.0,0.0,0.0,1,1,0
13,'1',1,1,1,2.092,0.823,0.0,0.0,0.0,0.0,1,1,0
14,'1',1,1,1,1.447,0.324,0.0,0.0,0.0,0.0,1,1,0
14,'99',1,1,1,5.309,2.268,0.0,0.0,0.0,0.0,1,1,0
15,'1',1,1,1,0.142,0.033,0.0,0.0,0.0,0.0,1,1,0
17,'1',1,1,1,3.529,1.527,0.0,0.0,0.0,0.0,1,1,0
18,'1',1,1,1,0.813,0.264,0.0,0.0,0.0,0.0,1,1,0
19,'1',1,1,1,0.496,0.165,0.0,0.0,0.0,0.0,1,1,0
20,'1',1,1,1,0.529,-0.178,0.0,0.0,0.0,0.0,1,1,0
20,'99',1,1,1,6.26,-11.582,0.0,0.0,0.0,0.0,1,1,0
21,'1',1,1,1,4.815,1.024,0.0,0.0,0.0,0.0,1,1,0
23,'1',1,1,1,13.219,0.0,0.0,0.0,0.0,0.0,1,1,0
23,'99',1,1,1,0.828,-4.252,0.0,0.0,0.0,0.0,1,1,0
24,'1',1,1,1,2.822,1.659,0.0,0.0,0.0,0.0,1,1,0
25,'1',1,1,1,0.0,-0.132,0.0,0.0,0.0,0.0,1,1,0
26,'1',1,1,1,11.702,4.167,0.0,0.0,0.0,0.0,1,1,0
27,'1',1,1,1,1.484,0.496,0.0,0.0,0.0,0.0,1,1,0
29,'1',1,1,1,3.143,1.226,0.0,0.0,0.0,0.0,1,1,0
31,'1',1,1,1,1.623,0.565,0.0,0.0,0.0,0.0,1,1,0
32,'1',1,1,1,2.33,1.16,0.0,0.0,0.0,0.0,1,1,0
33,'1',1,1,1,2.33,1.527,0.0,0.0,0.0,0.0,1,1,0
35,'1',1,1,1,0.529,0.165,0.0,0.0,0.0,0.0,1,1,0
39,'1',1,1,1,1.556,0.159,0.0,0.0,0.0,0.0,1,1,0
39,'99',0,1,1,4.051,-0.16,0.0,0.0,0.0,0.0,1,1,0
41,'1',1,1,1,0.565,0.198,0.0,0.0,0.0,0.0,1,1,0
42,'1',1,1,1,2.013,0.297,0.0,0.0,0.0,0.0,1,1,0
43,'99',0,1,1,4.735,1.275,0.0,0.0,0.0,0.0,1,1,0
44,'1',1,1,1,1.471,0.258,0.0,0.0,0.0,0.0,1,1,0
44,'99',1,1,1,3.767,2.488,0.0,0.0,0.0,0.0,1,1,0
45,'1',1,1,1,1.636,0.753,0.0,0.0,0.0,0.0,1,1,0
46,'1',1,1,1,3.073,1.031,0.0,0.0,0.0,0.0,1,1,0
46,'99',1,1,1,9.216,4.126,0.0,0.0,0.0,0.0,1,1,0
47,'1',1,1,1,3.87,1.385,0.0,0.0,0.0,0.0,1,1,0
48,'1',1,1,1,0.0,0.05,0.0,0.0,0.0,0.0,1,1,0
49,'1',1,1,1,5.922,1.391,0.0,0.0,0.0,0.0,1,1,0
49,'99',0,1,1,7.767,-1.351,0.0,0.0,0.0,0.0,1,1,0
52,'1',1,1,1,6.143,1.956,0.0,0.0,0.0,0.0,1,1,0
53,'1',1,1,1,2.617,1.064,0.0,0.0,0.0,0.0,1,1,0
54,'1',1,1,1,1.272,0.697,0.0,0.0,0.0,0.0,1,1,0
55,'1',1,1,1,0.106,0.0,0.0,0.0,0.0,0.0,1,1,0
56,'1',1,1,1,2.336,0.866,0.0,0.0,0.0,0.0,1,1,0
57,'1',1,1,1,1.378,0.492,0.0,0.0,0.0,0.0,1,1,0
58,'1',1,1,1,1.309,0.459,0.0,0.0,0.0,0.0,1,1,0
58,'99',1,1,1,15.166,-2.401,0.0,0.0,0.0,0.0,1,1,0
59,'1',1,1,1,2.191,0.737,0.0,0.0,0.0,0.0,1,1,0
60,'1',1,1,1,0.496,0.132,0.0,0.0,0.0,0.0,1,1,0
61,'99',1,1,1,2.967,8.019,0.0,0.0,0.0,0.0,1,1,0
63,'1',1,1,1,1.553,0.512,0.0,0.0,0.0,0.0,1,1,0
64,'1',1,1,1,0.777,0.264,0.0,0.0,0.0,0.0,1,1,0
65,'1',1,1,1,0.707,0.231,0.0,0.0,0.0,0.0,1,1,0
66,'1',1,1,1,2.442,0.902,0.0,0.0,0.0,0.0,1,1,0
67,'1',1,1,1,3.189,1.233,0.0,0.0,0.0,0.0,1,1,0
68,'1',1,1,1,5.684,11.173,0.0,0.0,0.0,0.0,1,1,0
70,'1',1,1,1,8.262,2.313,0.0,0.0,0.0,0.0,1,1,0
75,'1',1,1,2,3.966,9.914,0.0,0.0,0.0,0.0,1,1,0
76,'1',1,1,2,6.58,12.085,0.0,0.0,0.0,0.0,1,1,0
77,'1',1,1,2,3.966,9.914,0.0,0.0,0.0,0.0,1,1,0
83,'1',1,1,2,3.784,0.872,0.0,0.0,0.0,0.0,1,1,0
84,'1',1,1,2,8.562,2.122,0.0,0.0,0.0,0.0,1,1,0
86,'1',1,1,2,1.996,0.8,0.0,0.0,0.0,0.0,1,1,0
86,'99',0,1,2,3.193,2.086,0.0,0.0,0.0,0.0,1,1,0
87,'1',1,1,2,0.998,0.42,0.0,0.0,0.0,0.0,1,1,0
88,'1',1,1,2,2.191,0.211,0.0,0.0,0.0,0.0,1,1,0
89,'1',1,1,2,4.127,1.603,0.0,0.0,0.0,0.0,1,1,0
90,'1',1,1,2,1.2,0.175,0.0,0.0,0.0,0.0,1,1,0
91,'1',1,1,2,1.17,0.383,0.0,0.0,0.0,0.0,1,1,0
92,'1',1,1,2,6.352,10.872,0.0,0.0,0.0,0.0,1,1,0
94,'1',1,1,2,0.757,0.278,0.0,0.0,0.0,0.0,1,1,0
95,'1',1,1,2,1.55,0.631,0.0,0.0,0.0,0.0,1,1,0
96,'1',1,1,2,0.033,-0.261,0.0,0.0,0.0,0.0,1,1,0
97,'1',1,1,2,0.033,0.017,0.0,0.0,0.0,0.0,1,1,0
97,'99',1,1,2,1.809,0.634,0.0,0.0,0.0,0.0,1,1,0
98,'1',1,1,2,0.995,1.656,0.0,0.0,0.0,0.0,1,1,0
98,'99',1,1,2,5.692,6.778,0.0,0.0,0.0,0.0,1,1,0
99,'1',1,1,2,0.003,0.003,0.0,0.0,0.0,0.0,1,1,0
99,'99',1,1,2,4.149,3.06,0.0,0.0,0.0,0.0,1,1,0
100,'1',1,1,2,4.266,1.566,0.0,0.0,0.0,0.0,1,1,0
101,'1',1,1,2,3.096,1.252,0.0,0.0,0.0,0.0,1,1,0
102,'1',1,1,2,4.679,1.88,0.0,0.0,0.0,0.0,1,1,0
103,'1',1,1,2,3.767,1.236,0.0,0.0,0.0,0.0,1,1,0
104,'1',1,1,2,3.44,1.256,0.0,0.0,0.0,0.0,1,1,0
107,'1',1,1,2,1.814,0.211,0.0,0.0,0.0,0.0,1,1,0
108,'1',1,1,2,2.27,0.661,0.0,0.0,0.0,0.0,1,1,0
109,'1',1,1,2,1.857,0.767,0.0,0.0,0.0,0.0,1,1,0
110,'1',1,1,2,1.375,0.558,0.0,0.0,0.0,0.0,1,1,0
111,'1',1,1,2,0.482,0.175,0.0,0.0,0.0,0.0,1,1,0
112,'1',1,1,2,0.592,0.251,0.0,0.0,0.0,0.0,1,1,0
113,'1',1,1,2,0.552,0.245,0.0,0.0,0.0,0.0,1,1,0
114,'1',1,1,2,1.028,0.284,0.0,0.0,0.0,0.0,1,1,0
115,'1',1,1,2,1.576,0.178,0.0,0.0,0.0,0.0,1,1,0
116,'1',1,1,2,2.34,0.592,0.0,0.0,0.0,0.0,1,1,0
117,'1',1,1,2,3.784,1.533,0.0,0.0,0.0,0.0,1,1,0
118,'1',1,1,2,2.786,1.114,0.0,0.0,0.0,0.0,1,1,0
119,'1',1,1,2,2.237,-0.562,0.0,0.0,0.0,0.0,1,1,0
120,'1',1,1,2,7.227,4.184,0.0,0.0,0.0,0.0,1,1,0
121,'1',1,1,2,8.255,7.663,0.0,0.0,0.0,0.0,1,1,0
122,'1',1,1,2,4.815,1.395,0.0,0.0,0.0,0.0,1,1,0
123,'1',1,1,2,5.33,1.566,0.0,0.0,0.0,0.0,1,1,0
124,'1',1,1,2,1.765,0.585,0.0,0.0,0.0,0.0,1,1,0
125,'1',1,1,2,1.874,1.93,0.0,0.0,0.0,0.0,1,1,0
126,'1',1,1,2,2.545,1.044,0.0,0.0,0.0,0.0,1,1,0
128,'1',1,1,2,2.445,0.839,0.0,0.0,0.0,0.0,1,1,0
129,'1',1,1,2,0.397,0.155,0.0,0.0,0.0,0.0,1,1,0
130,'1',1,1,2,1.89,0.767,0.0,0.0,0.0,0.0,1,1,0
131,'1',1,1,2,1.927,0.767,0.0,0.0,0.0,0.0,1,1,0
132,'1',1,1,2,2.065,0.575,0.0,0.0,0.0,0.0,1,1,0
133,'1',1,1,2,2.065,0.575,0.0,0.0,0.0,0.0,1,1,0
134,'1',1,1,2,0.208,0.069,0.0,0.0,0.0,0.0,1,1,0
135,'1',1,1,2,4.339,1.745,0.0,0.0,0.0,0.0,1,1,0
136,'1',1,1,2,3.096,1.193,0.0,0.0,0.0,0.0,1,1,0
137,'1',1,1,2,1.547,0.628,0.0,0.0,0.0,0.0,1,1,0
138,'1',1,1,2,2.135,0.839,0.0,0.0,0.0,0.0,1,1,0
139,'1',1,1,2,7.191,2.016,0.0,0.0,0.0,0.0,1,1,0
140,'1',1,1,2,0.687,0.278,0.0,0.0,0.0,0.0,1,1,0
141,'1',1,1,2,0.896,0.347,0.0,0.0,0.0,0.0,1,1,0
142,'1',1,1,2,1.342,0.175,0.0,0.0,0.0,0.0,1,1,0
146,'1',1,1,2,2.786,1.011,0.0,0.0,0.0,0.0,1,1,0
147,'1',1,1,2,1.239,0.278,0.0,0.0,0.0,0.0,1,1,0
148,'1',1,1,2,9.322,3.414,0.0,0.0,0.0,0.0,1,1,0
149,'1',1,1,2,0.516,0.208,0.0,0.0,0.0,0.0,1,1,0
150,'1',1,1,2,209.514,0.0,0.0,0.0,0.0,0.0,1,1,0
151,'99',1,1,3,26.933,28.386,0.0,0.0,0.0,0.0,1,1,0
156,'99',0,1,3,51.091,23.702,0.0,0.0,0.0,0.0,1,1,0
162,'99',1,1,3,11.472,19.881,0.0,0.0,0.0,0.0,1,1,0
165,'1',1,1,3,3.635,13.219,0.0,0.0,0.0,0.0,1,1,0
166,'1',1,1,3,1.652,3.305,0.0,0.0,0.0,0.0,1,1,0
167,'1',1,1,3,2.29,1.028,0.0,0.0,0.0,0.0,1,1,0
168,'1',1,1,3,4.841,0.33,0.0,0.0,0.0,0.0,1,1,0
169,'1',1,1,3,2.69,0.436,0.0,0.0,0.0,0.0,1,1,0
170,'1',1,1,3,4.683,1.395,0.0,0.0,0.0,0.0,1,1,0
171,'1',1,1,3,1.395,0.33,0.0,0.0,0.0,0.0,1,1,0
172,'99',1,1,3,43.591,18.855,0.0,0.0,0.0,0.0,1,1,0
175,'1',1,1,3,1.725,0.697,0.0,0.0,0.0,0.0,1,1,0
176,'1',1,1,3,0.863,0.33,0.0,0.0,0.0,0.0,1,1,0
177,'1',1,1,3,0.003,0.003,0.0,0.0,0.0,0.0,1,1,0
178,'1',1,1,3,0.003,0.003,0.0,0.0,0.0,0.0,1,1,0
179,'1',1,1,3,5.178,1.725,0.0,0.0,0.0,0.0,1,1,0
180,'1',1,1,3,5.545,1.56,0.0,0.0,0.0,0.0,1,1,0
181,'1',1,1,3,1.395,0.165,0.0,0.0,0.0,0.0,1,1,0
182,'1',1,1,3,3.586,0.33,0.0,0.0,0.0,0.0,1,1,0
183,'1',1,1,3,4.848,1.028,0.0,0.0,0.0,0.0,1,1,0
184,'1',1,1,3,2.492,0.33,0.0,0.0,0.0,0.0,1,1,0
185,'1',1,1,3,0.697,0.165,0.0,0.0,0.0,0.0,1,1,0
186,'1',1,1,3,1.894,0.33,0.0,0.0,0.0,0.0,1,1,0
188,'1',1,1,3,3.123,0.863,0.0,0.0,0.0,0.0,1,1,0
189,'1',1,1,3,1.395,0.33,0.0,0.0,0.0,0.0,1,1,0
191,'1',1,1,3,5.178,0.863,0.0,0.0,0.0,0.0,1,1,0
192,'1',1,1,3,6.573,2.257,0.0,0.0,0.0,0.0,1,1,0
193,'1',1,1,3,2.756,0.896,0.0,0.0,0.0,0.0,1,1,0
194,'1',1,1,3,5.545,2.092,0.0,0.0,0.0,0.0,1,1,0
195,'1',1,1,3,4.848,1.028,0.0,0.0,0.0,0.0,1,1,0
196,'1',1,1,3,1.725,0.0,0.0,0.0,0.0,0.0,1,1,0
196,'99',1,1,3,0.192,-0.074,0.0,0.0,0.0,0.0,1,1,0
197,'1',1,1,3,2.422,0.697,0.0,0.0,0.0,0.0,1,1,0
198,'1',1,1,3,1.725,0.165,0.0,0.0,0.0,0.0,1,1,0
201,'1',1,1,3,3.123,0.33,0.0,0.0,0.0,0.0,1,1,0
202,'1',1,1,3,2.756,0.33,0.0,0.0,0.0,0.0,1,1,0
202,'99',1,1,3,4.356,-0.119,0.0,0.0,0.0,0.0,1,1,0
203,'1',1,1,3,3.453,0.33,0.0,0.0,0.0,0.0,1,1,0
204,'1',1,1,3,2.756,1.028,0.0,0.0,0.0,0.0,1,1,0
206,'1',1,1,3,4.848,1.028,0.0,0.0,0.0,0.0,1,1,0
207,'1',1,1,3,10.059,1.395,0.0,0.0,0.0,0.0,1,1,0
208,'1',1,1,3,6.242,1.56,0.0,0.0,0.0,0.0,1,1,0
209,'1',1,1,3,3.817,0.33,0.0,0.0,0.0,0.0,1,1,0
210,'1',1,1,3,5.876,1.395,0.0,0.0,0.0,0.0,1,1,0
212,'99',1,1,3,0.088,-0.498,0.0,0.0,0.0,0.0,1,1,0
213,'99',1,1,3,1.004,-0.284,0.0,0.0,0.0,0.0,1,1,0
218,'99',1,1,4,4.422,42.958,0.0,0.0,0.0,0.0,1,1,0
221,'99',0,1,4,16.612,4.762,0.0,0.0,0.0,0.0,1,1,0
222,'99',1,1,4,32.369,20.021,0.0,0.0,0.0,0.0,1,1,0
223,'1',1,1,4,3.305,14.54,0.0,0.0,0.0,0.0,1,1,0
224,'1',1,1,4,3.305,14.54,0.0,0.0,0.0,0.0,1,1,0
225,'1',1,1,4,6.014,12.297,0.0,0.0,0.0,0.0,1,1,0
225,'99',0,1,4,1.607,-38.283,0.0,0.0,0.0,0.0,1,1,0
226,'99',0,1,4,13.467,-6.415,0.0,0.0,0.0,0.0,1,1,0
227,'1',1,1,4,0.0,-0.261,0.0,0.0,0.0,0.0,1,1,0
228,'1',1,1,4,0.0,-0.261,0.0,0.0,0.0,0.0,1,1,0
229,'1',1,1,4,1.2,0.43,0.0,0.0,0.0,0.0,1,1,0
231,'99',1,1,4,9.715,-3.223,0.0,0.0,0.0,0.0,1,1,0
232,'99',0,1,4,5.018,1.508,0.0,0.0,0.0,0.0,1,1,0
233,'1',1,1,4,3.529,1.527,0.0,0.0,0.0,0.0,1,1,0
234,'1',1,1,4,1.801,1.358,0.0,0.0,0.0,0.0,1,1,0
235,'1',1,1,4,0.069,0.076,0.0,0.0,0.0,0.0,1,1,0
235,'99',1,1,4,21.265,5.163,0.0,0.0,0.0,0.0,1,1,0
236,'1',1,1,4,0.529,-0.178,0.0,0.0,0.0,0.0,1,1,0
238,'1',1,1,4,18.836,6.378,0.0,0.0,0.0,0.0,1,1,0
241,'99',1,1,4,12.79,2.636,0.0,0.0,0.0,0.0,1,1,0
242,'1',1,1,4,0.39,0.066,0.0,0.0,0.0,0.0,1,1,0
243,'99',1,1,4,6.229,-3.244,0.0,0.0,0.0,0.0,1,1,0
244,'1',1,1,4,1.484,0.496,0.0,0.0,0.0,0.0,1,1,0
246,'1',1,1,4,3.305,14.54,0.0,0.0,0.0,0.0,1,1,0
...
0 / END OF LOAD DATA BEGIN FIXED SHUNT DATA
2,'99',1,0.0,-7.133
4,'99',1,0.0,-9.601
6,'99',1,0.0,41.987
32,'99',1,0.0,-1.306
39,'99',1,0.0,-0.488
43,'99',1,0.0,3.712
49,'99',1,0.0,-4.149
53,'99',1,0.0,-61.98
67,'99',1,0.0,3.708
86,'99',1,0.0,6.325
90,'99',1,0.0,-0.019
153,'99',1,0.0,-11.354
156,'99',1,0.0,75.294
157,'99',1,0.0,-27.072
158,'99',1,0.0,-322.112
161,'99',1,0.0,-124.239
221,'99',1,0.0,13.922
225,'99',1,0.0,-110.36
226,'99',1,0.0,-18.625
232,'99',1,0.0,4.355
245,'99',1,0.0,-10.356
253,'99',1,0.0,6.238
255,'99',1,0.0,7.309
271,'99',1,0.0,5.929
275,'99',1,0.0,84.787
277,'99',1,0.0,110.69
281,'99',1,0.0,2.151
285,'99',1,0.0,-161.346
309,'99',1,0.0,22.813
348,'99',1,0.0,-12.059
374,'99',1,0.0,-345.603
466,'99',1,0.0,-104.053
471,'99',1,0.0,-290.111
478,'99',1,0.0,64.761
577,'99',1,0.0,-7.123
579,'99',1,0.0,-9.607
580,'99',1,0.0,-102.36
581,'99',1,0.0,47.641
583,'99',1,0.0,-2.918
585,'99',1,0.0,13.934
589,'99',1,0.0,3.923
623,'99',1,0.0,8.01
624,'99',1,0.0,-7.008
636,'99',1,0.0,0.009
672,'99',1,0.0,12.795
690,'99',1,0.0,6.841
695,'99',1,0.0,16.47
698,'99',1,0.0,160.079
703,'99',1,0.0,-47.656
718,'99',1,0.0,-21.734
720,'99',1,0.0,20.121
723,'99',1,0.0,8.7
750,'99',1,0.0,13.261
760,'99',1,0.0,64.443
766,'99',1,0.0,115.888
817,'99',1,0.0,11.465
869,'99',1,0.0,5.172
883,'99',1,0.0,11.098
939,'99',1,0.0,11.802
942,'99',1,0.0,7.486
979,'99',1,0.0,14.306
983,'99',1,0.0,-5.456
995,'99',1,0.0,14.167
1012,'99',1,0.0,2.712
1013,'99',1,0.0,-10.135
1054,'99',1,0.0,2.499
1096,'99',1,0.0,-29.377
1135,'99',1,0.0,16.277
1226,'99',1,0.0,307.861
1241,'99',1,0.0,-9.766
1245,'99',1,0.0,28.8
1266,'99',1,0.0,1.091
1267,'99',1,0.0,-13.276
1351,'99',1,0.0,9.622
1359,'99',1,0.0,44.093
1376,'99',1,0.0,62.25
1377,'99',1,0.0,37.157
1384,'99',1,0.0,-0.278
1400,'99',1,0.0,13.892
1495,'99',1,0.0,-1.174
1496,'99',1,0.0,12.766
1525,'99',1,0.0,-18.886
1533,'99',1,0.0,-95.945
1557,'99',1,0.0,-31.028
1565,'99',1,0.0,-52.104
1621,'99',1,0.0,-73.418
1807,'99',1,0.0,-15.963
1877,'99',1,0.0,-5.368
1878,'99',1,0.0,12.724
1880,'99',1,0.0,-5.367
1923,'99',1,0.0,-9.083
1951,'99',1,0.0,0.756
1979,'99',1,0.0,0.624
1998,'99',1,0.0,4.345
1999,'99',1,0.0,17.297
2083,'99',1,0.0,28.513
2093,'99',1,0.0,103.474
2095,'99',1,0.0,-13.183
2109,'99',1,0.0,-38.789
2111,'99',1,0.0,-2.161
2129,'99',1,0.0,-0.089
2146,'99',1,0.0,-19.827
2172,'99',1,0.0,2.864
2174,'99',1,0.0,9.1
2179,'99',1,0.0,94.807
2192,'99',1,0.0,-0.371
2197,'99',1,0.0,5.815
2224,'99',1,0.0,1.293
2230,'99',1,0.0,-11.696
2244,'99',1,0.0,3.661
2246,'99',1,0.0,-32.703
2251,'99',1,0.0,17.159
2258,'99',1,0.0,9.498
2262,'99',1,0.0,-0.418
2269,'99',1,0.0,-361.197
2287,'99',1,0.0,191.001
2293,'99',1,0.0,-120.311
2296,'99',1,0.0,2.477
2297,'99',1,0.0,-130.348
2309,'99',1,0.0,30.957
2311,'99',1,0.0,-63.287
0 / END OF FIXED SHUNT DATA BEGIN GENERATOR DATA
9,'1',0.0,0.0,93.531,-93.531,1.00788,0,252.98,0.0,0.18,0.0,0.0,1.0,0,100.0,301.471,135.0,1,1.0,0,1.0,0,1.0,0,1.0,0,1.0
10,'1',0.0,0.0,155.693,-155.693,1.00358,0,267.71,0.0,0.18,0.0,0.0,1.0,0,100.0,501.832,171.516,1,1.0,0,1.0,0,1.0,0,1.0,0,1.0
10,'2',0.0,0.0,162.14,-162.14,1.00358,0,256.16,0.0,0.18,0.0,0.0,1.0,0,100.0,522.609,178.876,1,1.0,0,1.0,0,1.0,0,1.0,0,1.0
11,'2',0.0,0.0,20.075,-20.075,1.00788,0,55.0,0.0,0.2,0.0,0.0,1.0,0,100.0,64.706,35.833,1,1.0,0,1.0,0,1.0,0,1.0,0,1.0
12,'1',0.0,0.0,20.075,-20.075,1.00788,0,55.0,0.0,0.2,0.0,0.0,1.0,0,100.0,64.706,35.833,1,1.0,0,1.0,0,1.0,0,1.0,0,1.0
24,'99',0.0,0.0,27.194,-27.194,1.0054,0,100.0,0.0,1.0,0.0,0.0,1.0,1,100.0,87.653,3.0,1,1.0,0,1.0,0,1.0,0,1.0,0,1.0
26,'1',0.0,0.0,5.475,-5.475,1.00788,0,15.0,0.0,0.2,0.0,0.0,1.0,0,100.0,17.647,3.0,1,1.0,0,1.0,0,1.0,0,1.0,0,1.0
46,'2',0.0,0.0,4.38,-4.38,1.00718,0,12.0,0.0,0.2,0.0,0.0,1.0,1,100.0,14.118,3.0,1,1.0,0,1.0,0,1.0,0,1.0,0,1.0
68,'1',0.0,0.0,93.531,-93.531,1.00858,0,267.05,0.0,0.18,0.0,0.0,1.0,1,100.0,301.471,135.0,1,1.0,0,1.0,0,1.0,0,1.0,0,1.0
75,'1',0.0,0.0,74.825,-74.825,1.00788,0,253.76,0.0,0.18,0.0,0.0,1.0,0,100.0,241.176,135.0,1,1.0,0,1.0,0,1.0,0,1.0,0,1.0
76,'3',0.0,0.0,84.68,-84.68,1.00788,0,232.0,0.0,0.18,0.0,0.0,1.0,1,100.0,272.941,100.0,1,1.0,0,1.0,0,1.0,0,1.0,0,1.0
77,'1',0.0,0.0,91.25,-91.25,1.0026,0,268.92,0.0,0.18,0.0,0.0,1.0,0,100.0,294.118,90.0,1,1.0,0,1.0,0,1.0,0,1.0,0,1.0
77,'99',0.0,0.0,90.313,-90.313,1.0026,0,100.0,0.0,1.0,0.0,0.0,1.0,1,100.0,291.099,14.555,1,1.0,0,1.0,0,1.0,0,1.0,0,1.0
78,'99',0.0,0.0,63.457,-63.457,0.9916,0,100.0,0.0,1.0,0.0,0.0,1.0,1,100.0,204.535,10.227,1,1.0,0,1.0,0,1.0,0,1.0,0,1.0
92,'1',0.0,0.0,81.03,-81.03,1.00542,0,222.0,0.0,0.18,0.0,0.0,1.0,0,100.0,261.176,90.0,1,1.0,0,1.0,0,1.0,0,1.0,0,1.0
95,'1',0.0,0.0,104.755,-104.755,1.00225,0,2.04,0.0,0.2,0.0,0.0,1.0,0,100.0,337.647,16.882,1,1.0,0,1.0,0,1.0,0,1.0,0,1.0
98,'1',0.0,0.0,24.044,-24.044,1.00358,0,65.75,0.0,0.2,0.0,0.0,1.0,0,100.0,77.5,10.0,1,1.0,0,1.0,0,1.0,0,1.0,0,1.0
98,'2',0.0,0.0,97.455,-97.455,1.00358,0,6.0,0.0,0.2,0.0,0.0,1.0,0,100.0,314.118,2.0,1,1.0,0,1.0,0,1.0,0,1.0,0,1.0
99,'1',0.0,0.0,95.63,-95.63,1.00788,0,6.47,0.0,0.2,0.0,0.0,1.0,1,100.0,308.235,1.0,1,1.0,0,1.0,0,1.0,0,1.0,0,1.0
112,'1',0.0,0.0,101.47,-101.47,1.00358,0,0.26,0.0,0.2,0.0,0.0,1.0,0,100.0,327.059,16.353,1,1.0,0,1.0,0,1.0,0,1.0,0,1.0
112,'2',0.0,0.0,105.12,-105.12,1.00358,0,1.36,0.0,0.2,0.0,0.0,1.0,0,100.0,338.824,1.0,1,1.0,0,1.0,0,1.0,0,1.0,0,1.0
120,'1',0.0,0.0,7.3,-7.3,1.00436,0,20.0,0.0,0.2,0.0,0.0,1.0,0,100.0,23.529,5.0,1,1.0,0,1.0,0,1.0,0,1.0,0,1.0
125,'1',0.0,0.0,23.725,-23.725,1.00929,0,65.0,0.0,0.2,0.0,0.0,1.0,0,100.0,76.471,40.0,1,1.0,0,1.0,0,1.0,0,1.0,0,1.0
127,'1',0.0,0.0,11.315,-11.315,1.00507,0,31.0,0.0,0.2,0.0,0.0,1.0,0,100.0,36.471,3.0,1,1.0,0,1.0,0,1.0,0,1.0,0,1.0
128,'1',0.0,0.0,11.315,-11.315,1.00507,0,31.0,0.0,0.2,0.0,0.0,1.0,0,100.0,36.471,3.0,1,1.0,0,1.0,0,1.0,0,1.0,0,1.0
135,'1',0.0,0.0,104.39,-104.39,1.00718,0,2.03,0.0,0.2,0.0,0.0,1.0,1,100.0,336.471,1.0,1,1.0,0,1.0,0,1.0,0,1.0,0,1.0
138,'1',0.0,0.0,94.9,-94.9,1.00788,0,0.24,0.0,0.2,0.0,0.0,1.0,0,100.0,305.882,15.294,1,1.0,0,1.0,0,1.0,0,1.0,0,1.0
150,'1',0.0,0.0,97.82,-97.82,1.00794,0,108.13,0.0,0.18,0.0,0.0,1.0,0,100.0,315.294,15.765,1,1.0,0,1.0,0,1.0,0,1.0,0,1.0
165,'1',0.0,0.0,65.335,-65.335,1.00224,0,216.55,0.0,0.18,0.0,0.0,1.0,0,100.0,210.588,10.529,1,1.0,0,1.0,0,1.0,0,1.0,0,1.0
165,'2',0.0,0.0,65.335,-65.335,1.00224,0,179.0,0.0,0.18,0.0,0.0,1.0,0,100.0,210.588,10.529,1,1.0,0,1.0,0,1.0,0,1.0,0,1.0
165,'3',0.0,0.0,65.335,-65.335,1.00224,0,179.0,0.0,0.18,0.0,0.0,1.0,0,100.0,210.588,10.529,1,1.0,0,1.0,0,1.0,0,1.0,0,1.0
166,'1',0.0,0.0,65.335,-65.335,1.00445,0,179.0,0.0,0.18,0.0,0.0,1.0,0,100.0,210.588,3.6,1,1.0,0,1.0,0,1.0,0,1.0,0,1.0
168,'1',0.0,0.0,20.075,-20.075,1.00647,0,58.99,0.0,0.2,0.0,0.0,1.0,1,100.0,64.706,26.0,1,1.0,0,1.0,0,1.0,0,1.0,0,1.0
171,'1',0.0,0.0,103.66,-103.66,1.00718,0,0.36,0.0,0.2,0.0,0.0,1.0,0,100.0,334.118,16.706,1,1.0,0,1.0,0,1.0,0,1.0,0,1.0
177,'1',0.0,0.0,6.57,-6.57,1.00718,0,18.0,0.0,0.2,0.0,0.0,1.0,0,100.0,21.176,3.0,1,1.0,0,1.0,0,1.0,0,1.0,0,1.0
178,'1',0.0,0.0,8.03,-8.03,1.00788,0,22.0,0.0,0.2,0.0,0.0,1.0,0,100.0,25.882,3.0,1,1.0,0,1.0,0,1.0,0,1.0,0,1.0
183,'1',0.0,0.0,95.63,-95.63,1.00718,0,0.24,0.0,0.2,0.0,0.0,1.0,0,100.0,308.235,10.973,1,1.0,0,1.0,0,1.0,0,1.0,0,1.0
185,'99',0.0,0.0,99.645,-99.645,1.0098,0,100.0,0.0,1.0,0.0,0.0,1.0,1,100.0,321.176,3.0,1,1.0,0,1.0,0,1.0,0,1.0,0,1.0
188,'1',0.0,0.0,109.135,-109.135,1.00788,0,2.0,0.0,0.2,0.0,0.0,1.0,0,100.0,351.765,1.0,1,1.0,0,1.0,0,1.0,0,1.0,0,1.0
194,'1',0.0,0.0,103.66,-103.66,1.00718,0,1.0,0.0,0.2,0.0,0.0,1.0,0,100.0,334.118,16.706,1,1.0,0,1.0,0,1.0,0,1.0,0,1.0
195,'1',0.0,0.0,93.44,-93.44,1.00788,0,1.08,0.0,0.2,0.0,0.0,1.0,0,100.0,301.176,3.0,1,1.0,0,1.0,0,1.0,0,1.0,0,1.0
201,'1',0.0,0.0,106.215,-106.215,1.00788,0,0.12,0.0,0.2,0.0,0.0,1.0,0,100.0,342.353,17.118,1,1.0,0,1.0,0,1.0,0,1.0,0,1.0
207,'1',0.0,0.0,107.31,-107.31,1.00718,0,9.0,0.0,0.2,0.0,0.0,1.0,0,100.0,345.882,17.294,1,1.0,0,1.0,0,1.0,0,1.0,0,1.0
209,'1',0.0,0.0,95.265,-95.265,1.00718,0,0.24,0.0,0.2,0.0,0.0,1.0,0,100.0,307.059,15.353,1,1.0,0,1.0,0,1.0,0,1.0,0,1.0
217,'99',0.0,0.0,62.42,-62.42,0.9987,0,100.0,0.0,1.0,0.0,0.0,1.0,1,100.0,201.194,10.06,1,1.0,0,1.0,0,1.0,0,1.0,0,1.0
223,'1',0.0,0.0,98.101,-98.101,1.00788,0,282.49,0.0,0.18,0.0,0.0,1.0,0,100.0,316.2,120.0,1,1.0,0,1.0,0,1.0,0,1.0,0,1.0
224,'1',0.0,0.0,98.094,-98.094,1.00788,0,281.34,0.0,0.18,0.0,0.0,1.0,1,100.0,316.177,120.0,1,1.0,0,1.0,0,1.0,0,1.0,0,1.0
225,'1',0.0,0.0,93.531,-93.531,1.00788,0,252.98,0.0,0.18,0.0,0.0,1.0,1,100.0,301.471,135.0,1,1.0,0,1.0,0,1.0,0,1.0,0,1.0
246,'1',0.0,0.0,98.094,-98.094,1.00858,0,273.78,0.0,0.18,0.0,0.0,1.0,1,100.0,316.177,120.0,1,1.0,0,1.0,0,1.0,0,1.0,0,1.0
248,'99',0.0,0.0,22.027,-22.027,1.0076,0,100.0,0.0,1.0,0.0,0.0,1.0,1,100.0,70.999,3.55,1,1.0,0,1.0,0,1.0,0,1.0,0,1.0
252,'1',0.0,0.0,57.031,-57.031,1.00376,0,160.45,0.0,0.18,0.0,0.0,1.0,1,100.0,183.824,70.0,1,1.0,0,1.0,0,1.0,0,1.0,0,1.0
252,'2',0.0,0.0,45.625,-45.625,1.00376,0,143.77,0.0,0.18,0.0,0.0,1.0,0,100.0,147.059,70.0,1,1.0,0,1.0,0,1.0,0,1.0,0,1.0
274,'1',0.0,0.0,108.405,-108.405,1.00488,0,42.43,0.0,0.2,0.0,0.0,1.0,0,100.0,349.412,17.471,1,1.0,0,1.0,0,1.0,0,1.0,0,1.0
282,'98',0.0,0.0,500.0,-500.0,1.01,0,100.0,0.0,1.0,0.0,0.0,1.0,1,100.0,40.0,3.0,1,1.0,0,1.0,0,1.0,0,1.0,0,1.0
289,'1',0.0,0.0,65.335,-65.335,1.00224,0,216.55,0.0,0.18,0.0,0.0,1.0,0,100.0,210.588,10.529,1,1.0,0,1.0,0,1.0,0,1.0,0,1.0
289,'2',0.0,0.0,65.335,-65.335,1.00224,0,179.0,0.0,0.18,0.0,0.0,1.0,1,100.0,210.588,10.529,1,1.0,0,1.0,0,1.0,0,1.0,0,1.0
289,'3',0.0,0.0,65.335,-65.335,1.00224,0,179.0,0.0,0.18,0.0,0.0,1.0,0,100.0,210.588,10.529,1,1.0,0,1.0,0,1.0,0,1.0,0,1.0
290,'1',0.0,0.0,65.335,-65.335,1.00445,0,179.0,0.0,0.18,0.0,0.0,1.0,0,100.0,210.588,10.529,1,1.0,0,1.0,0,1.0,0,1.0,0,1.0
292,'1',0.0,0.0,20.075,-20.075,1.00647,0,58.99,0.0,0.2,0.0,0.0,1.0,1,100.0,64.706,26.0,1,1.0,0,1.0,0,1.0,0,1.0,0,1.0
295,'1',0.0,0.0,108.04,-108.04,1.00718,0,0.36,0.0,0.2,0.0,0.0,1.0,0,100.0,348.235,17.412,1,1.0,0,1.0,0,1.0,0,1.0,0,1.0
297,'97',0.0,0.0,547.5,-547.5,1.0,0,100.0,0.0,0.1,0.0,0.0,1.0,1,100.0,40.0,3.0,1,1.0,0,1.0,0,1.0,0,1.0,0,1.0
301,'1',0.0,0.0,6.57,-6.57,1.00718,0,18.0,0.0,0.2,0.0,0.0,1.0,0,100.0,21.176,3.0,1,1.0,0,1.0,0,1.0,0,1.0,0,1.0
302,'1',0.0,0.0,8.03,-8.03,1.00788,0,22.0,0.0,0.2,0.0,0.0,1.0,0,100.0,25.882,3.0,1,1.0,0,1.0,0,1.0,0,1.0,0,1.0
307,'1',0.0,0.0,107.31,-107.31,1.00718,0,0.24,0.0,0.2,0.0,0.0,1.0,0,100.0,345.882,17.294,1,1.0,0,1.0,0,1.0,0,1.0,0,1.0
311,'97',0.0,0.0,547.5,-547.5,1.0,0,100.0,0.0,0.1,0.0,0.0,1.0,1,100.0,40.0,3.0,1,1.0,0,1.0,0,1.0,0,1.0,0,1.0
312,'1',0.0,0.0,94.17,-94.17,1.00788,0,2.0,0.0,0.2,0.0,0.0,1.0,0,100.0,303.529,1.0,1,1.0,0,1.0,0,1.0,0,1.0,0,1.0
318,'1',0.0,0.0,109.135,-109.135,1.00718,0,1.0,0.0,0.2,0.0,0.0,1.0,0,100.0,351.765,6.73,1,1.0,0,1.0,0,1.0,0,1.0,0,1.0
319,'1',0.0,0.0,96.36,-96.36,1.00788,0,1.08,0.0,0.2,0.0,0.0,1.0,0,100.0,310.588,15.529,1,1.0,0,1.0,0,1.0,0,1.0,0,1.0
325,'1',0.0,0.0,97.455,-97.455,1.00788,0,0.12,0.0,0.2,0.0,0.0,1.0,0,100.0,314.118,15.706,1,1.0,0,1.0,0,1.0,0,1.0,0,1.0
331,'1',0.0,0.0,92.71,-92.71,1.00718,0,9.0,0.0,0.2,0.0,0.0,1.0,1,100.0,298.824,14.941,1,1.0,0,1.0,0,1.0,0,1.0,0,1.0
333,'1',0.0,0.0,97.455,-97.455,1.00718,0,0.24,0.0,0.2,0.0,0.0,1.0,0,100.0,314.118,15.706,1,1.0,0,1.0,0,1.0,0,1.0,0,1.0
343,'1',0.0,0.0,147.451,-147.451,1.00413,0,100.0,0.0,1.0,0.0,0.0,1.0,0,100.0,475.266,23.763,1,1.0,0,1.0,0,1.0,0,1.0,0,1.0
344,'1',0.0,0.0,147.451,-147.451,1.00413,0,100.0,0.0,1.0,0.0,0.0,1.0,0,100.0,475.266,23.763,1,1.0,0,1.0,0,1.0,0,1.0,0,1.0
345,'1',0.0,0.0,147.467,-147.467,1.00413,0,100.0,0.0,1.0,0.0,0.0,1.0,0,100.0,475.316,23.766,1,1.0,0,1.0,0,1.0,0,1.0,0,1.0
347,'1',0.0,0.0,134.137,-134.137,1.00413,0,100.0,0.0,1.0,0.0,0.0,1.0,0,100.0,432.353,21.618,1,1.0,0,1.0,0,1.0,0,1.0,0,1.0
349,'1',0.0,0.0,98.55,-98.55,1.00413,0,100.0,0.0,1.0,0.0,0.0,1.0,0,100.0,317.647,11.67,1,1.0,0,1.0,0,1.0,0,1.0,0,1.0
350,'1',0.0,0.0,98.55,-98.55,1.00413,0,100.0,0.0,1.0,0.0,0.0,1.0,0,100.0,317.647,15.882,1,1.0,0,1.0,0,1.0,0,1.0,0,1.0
351,'1',0.0,0.0,98.55,-98.55,1.00413,0,100.0,0.0,1.0,0.0,0.0,1.0,0,100.0,317.647,15.882,1,1.0,0,1.0,0,1.0,0,1.0,0,1.0
352,'1',0.0,0.0,98.55,-98.55,1.00413,0,100.0,0.0,1.0,0.0,0.0,1.0,0,100.0,317.647,15.882,1,1.0,0,1.0,0,1.0,0,1.0,0,1.0
353,'1',0.0,0.0,110.869,-110.869,1.00413,0,100.0,0.0,1.0,0.0,0.0,1.0,1,100.0,357.353,17.868,1,1.0,0,1.0,0,1.0,0,1.0,0,1.0
354,'1',0.0,0.0,110.869,-110.869,1.00413,0,100.0,0.0,1.0,0.0,0.0,1.0,0,100.0,357.353,17.868,1,1.0,0,1.0,0,1.0,0,1.0,0,1.0
355,'1',0.0,0.0,98.961,-98.961,1.00413,0,100.0,0.0,1.0,0.0,0.0,1.0,0,100.0,318.971,15.949,1,1.0,0,1.0,0,1.0,0,1.0,0,1.0
356,'1',0.0,0.0,98.961,-98.961,1.00413,0,100.0,0.0,1.0,0.0,0.0,1.0,1,100.0,318.971,15.949,1,1.0,0,1.0,0,1.0,0,1.0,0,1.0
357,'1',0.0,0.0,98.961,-98.961,1.00413,0,100.0,0.0,1.0,0.0,0.0,1.0,0,100.0,318.971,15.949,1,1.0,0,1.0,0,1.0,0,1.0,0,1.0
358,'1',0.0,0.0,126.582,-126.582,1.00413,0,100.0,0.0,1.0,0.0,0.0,1.0,1,100.0,408.0,20.4,1,1.0,0,1.0,0,1.0,0,1.0,0,1.0
360,'1',0.0,0.0,145.242,-145.242,1.00413,0,100.0,0.0,1.0,0.0,0.0,1.0,0,100.0,468.145,23.407,1,1.0,0,1.0,0,1.0,0,1.0,0,1.0
361,'1',0.0,0.0,145.242,-145.242,1.00413,0,100.0,0.0,1.0,0.0,0.0,1.0,0,100.0,468.145,23.407,1,1.0,0,1.0,0,1.0,0,1.0,0,1.0
362,'1',0.0,0.0,145.242,-145.242,1.00413,0,100.0,0.0,1.0,0.0,0.0,1.0,0,100.0,468.145,23.407,1,1.0,0,1.0,0,1.0,0,1.0,0,1.0
364,'1',0.0,0.0,132.769,-132.769,1.00413,0,100.0,0.0,1.0,0.0,0.0,1.0,1,100.0,427.941,21.397,1,1.0,0,1.0,0,1.0,0,1.0,0,1.0
365,'1',0.0,0.0,132.769,-132.769,1.00413,0,100.0,0.0,1.0,0.0,0.0,1.0,0,100.0,427.941,21.397,1,1.0,0,1.0,0,1.0,0,1.0,0,1.0
366,'1',0.0,0.0,80.072,-80.072,1.00413,0,100.0,0.0,1.0,0.0,0.0,1.0,1,100.0,258.088,12.904,1,1.0,0,1.0,0,1.0,0,1.0,0,1.0
367,'1',0.0,0.0,80.072,-80.072,1.00413,0,100.0,0.0,1.0,0.0,0.0,1.0,0,100.0,258.088,12.904,1,1.0,0,1.0,0,1.0,0,1.0,0,1.0
379,'99',0.0,0.0,285.277,-285.277,0.9971,0,100.0,0.0,1.0,0.0,0.0,1.0,1,100.0,919.508,45.975,1,1.0,0,1.0,0,1.0,0,1.0,0,1.0
385,'99',0.0,0.0,171.709,-171.709,0.9925,0,100.0,0.0,1.0,0.0,0.0,1.0,1,100.0,553.454,27.673,1,1.0,0,1.0,0,1.0,0,1.0,0,1.0
392,'1',0.0,0.0,148.427,-148.427,1.00413,0,100.0,0.0,1.0,0.0,0.0,1.0,0,100.0,478.409,23.92,1,1.0,0,1.0,0,1.0,0,1.0,0,1.0
393,'1',0.0,0.0,148.282,-148.282,1.00413,0,100.0,0.0,1.0,0.0,0.0,1.0,0,100.0,477.944,23.897,1,1.0,0,1.0,0,1.0,0,1.0,0,1.0
394,'1',0.0,0.0,148.411,-148.411,1.00413,0,100.0,0.0,1.0,0.0,0.0,1.0,0,100.0,478.359,23.918,1,1.0,0,1.0,0,1.0,0,1.0,0,1.0
395,'1',0.0,0.0,148.387,-148.387,1.00413,0,100.0,0.0,1.0,0.0,0.0,1.0,0,100.0,478.281,23.914,1,1.0,0,1.0,0,1.0,0,1.0,0,1.0
397,'1',0.0,0.0,134.137,-134.137,1.00413,0,100.0,0.0,1.0,0.0,0.0,1.0,0,100.0,432.353,21.618,1,1.0,0,1.0,0,1.0,0,1.0,0,1.0
399,'1',0.0,0.0,134.137,-134.137,1.00413,0,100.0,0.0,1.0,0.0,0.0,1.0,0,100.0,432.353,21.618,1,1.0,0,1.0,0,1.0,0,1.0,0,1.0
400,'1',0.0,0.0,134.137,-134.137,1.00413,0,100.0,0.0,1.0,0.0,0.0,1.0,0,100.0,432.353,21.618,1,1.0,0,1.0,0,1.0,0,1.0,0,1.0
402,'1',0.0,0.0,98.55,-98.55,1.00413,0,100.0,0.0,1.0,0.0,0.0,1.0,0,100.0,317.647,15.882,1,1.0,0,1.0,0,1.0,0,1.0,0,1.0
403,'1',0.0,0.0,98.55,-98.55,1.00413,0,100.0,0.0,1.0,0.0,0.0,1.0,0,100.0,317.647,15.882,1,1.0,0,1.0,0,1.0,0,1.0,0,1.0
404,'1',0.0,0.0,98.55,-98.55,1.00413,0,100.0,0.0,1.0,0.0,0.0,1.0,1,100.0,317.647,15.882,1,1.0,0,1.0,0,1.0,0,1.0,0,1.0
405,'1',0.0,0.0,98.55,-98.55,1.00413,0,100.0,0.0,1.0,0.0,0.0,1.0,0,100.0,317.647,15.882,1,1.0,0,1.0,0,1.0,0,1.0,0,1.0
406,'1',0.0,0.0,110.869,-110.869,1.00413,0,100.0,0.0,1.0,0.0,0.0,1.0,0,100.0,357.353,17.868,1,1.0,0,1.0,0,1.0,0,1.0,0,1.0
407,'1',0.0,0.0,110.869,-110.869,1.00413,0,100.0,0.0,1.0,0.0,0.0,1.0,1,100.0,357.353,17.868,1,1.0,0,1.0,0,1.0,0,1.0,0,1.0
408,'1',0.0,0.0,98.961,-98.961,1.00413,0,100.0,0.0,1.0,0.0,0.0,1.0,0,100.0,318.971,15.949,1,1.0,0,1.0,0,1.0,0,1.0,0,1.0
409,'1',0.0,0.0,98.961,-98.961,1.00413,0,100.0,0.0,1.0,0.0,0.0,1.0,0,100.0,318.971,15.949,1,1.0,0,1.0,0,1.0,0,1.0,0,1.0
410,'1',0.0,0.0,98.961,-98.961,1.00413,0,100.0,0.0,1.0,0.0,0.0,1.0,0,100.0,318.971,15.949,1,1.0,0,1.0,0,1.0,0,1.0,0,1.0
411,'1',0.0,0.0,126.582,-126.582,1.00413,0,100.0,0.0,1.0,0.0,0.0,1.0,0,100.0,408.0,20.4,1,1.0,0,1.0,0,1.0,0,1.0,0,1.0
414,'1',0.0,0.0,115.659,-115.659,1.00413,0,100.0,0.0,1.0,0.0,0.0,1.0,0,100.0,372.794,18.64,1,1.0,0,1.0,0,1.0,0,1.0,0,1.0
415,'1',0.0,0.0,115.659,-115.659,1.00413,0,100.0,0.0,1.0,0.0,0.0,1.0,0,100.0,372.794,3.0,1,1.0,0,1.0,0,1.0,0,1.0,0,1.0
416,'1',0.0,0.0,115.659,-115.659,1.00413,0,100.0,0.0,1.0,0.0,0.0,1.0,0,100.0,372.794,18.64,1,1.0,0,1.0,0,1.0,0,1.0,0,1.0
417,'1',0.0,0.0,143.445,-143.445,1.00413,0,100.0,0.0,1.0,0.0,0.0,1.0,0,100.0,462.353,23.118,1,1.0,0,1.0,0,1.0,0,1.0,0,1.0
418,'1',0.0,0.0,119.081,-119.081,1.00413,0,100.0,0.0,1.0,0.0,0.0,1.0,0,100.0,383.824,19.191,1,1.0,0,1.0,0,1.0,0,1.0,0,1.0
419,'1',0.0,0.0,119.081,-119.081,1.00413,0,100.0,0.0,1.0,0.0,0.0,1.0,0,100.0,383.824,3.615,1,1.0,0,1.0,0,1.0,0,1.0,0,1.0
420,'1',0.0,0.0,114.975,-114.975,1.00413,0,100.0,0.0,1.0,0.0,0.0,1.0,0,100.0,370.588,18.529,1,1.0,0,1.0,0,1.0,0,1.0,0,1.0
421,'1',0.0,0.0,148.443,-148.443,1.00413,0,100.0,0.0,1.0,0.0,0.0,1.0,0,100.0,478.464,23.923,1,1.0,0,1.0,0,1.0,0,1.0,0,1.0
423,'1',0.0,0.0,30.112,-30.112,1.00413,0,100.0,0.0,1.0,0.0,0.0,1.0,0,100.0,97.059,4.853,1,1.0,0,1.0,0,1.0,0,1.0,0,1.0
424,'1',0.0,0.0,30.112,-30.112,1.00413,0,100.0,0.0,1.0,0.0,0.0,1.0,1,100.0,97.059,4.853,1,1.0,0,1.0,0,1.0,0,1.0,0,1.0
425,'1',0.0,0.0,30.797,-30.797,1.00413,0,100.0,0.0,1.0,0.0,0.0,1.0,0,100.0,99.265,4.963,1,1.0,0,1.0,0,1.0,0,1.0,0,1.0
426,'1',0.0,0.0,30.797,-30.797,1.00413,0,100.0,0.0,1.0,0.0,0.0,1.0,0,100.0,99.265,4.963,1,1.0,0,1.0,0,1.0,0,1.0,0,1.0
427,'1',0.0,0.0,30.797,-30.797,1.00413,0,100.0,0.0,1.0,0.0,0.0,1.0,0,100.0,99.265,4.963,1,1.0,0,1.0,0,1.0,0,1.0,0,1.0
428,'1',0.0,0.0,30.797,-30.797,1.00413,0,100.0,0.0,1.0,0.0,0.0,1.0,0,100.0,99.265,4.963,1,1.0,0,1.0,0,1.0,0,1.0,0,1.0
430,'1',0.0,0.0,132.769,-132.769,1.00413,0,100.0,0.0,1.0,0.0,0.0,1.0,0,100.0,427.941,21.397,1,1.0,0,1.0,0,1.0,0,1.0,0,1.0
431,'1',0.0,0.0,132.769,-132.769,1.00413,0,100.0,0.0,1.0,0.0,0.0,1.0,1,100.0,427.941,21.397,1,1.0,0,1.0,0,1.0,0,1.0,0,1.0
432,'1',0.0,0.0,80.072,-80.072,1.00413,0,100.0,0.0,1.0,0.0,0.0,1.0,0,100.0,258.088,12.904,1,1.0,0,1.0,0,1.0,0,1.0,0,1.0
433,'1',0.0,0.0,80.072,-80.072,1.00413,0,100.0,0.0,1.0,0.0,0.0,1.0,0,100.0,258.088,12.904,1,1.0,0,1.0,0,1.0,0,1.0,0,1.0
444,'99',0.0,0.0,150.637,-150.637,1.0001,0,100.0,0.0,1.0,0.0,0.0,1.0,1,100.0,485.535,24.277,1,1.0,0,1.0,0,1.0,0,1.0,0,1.0
445,'99',0.0,0.0,124.832,-124.832,1.0002,0,100.0,0.0,1.0,0.0,0.0,1.0,1,100.0,402.359,20.118,1,1.0,0,1.0,0,1.0,0,1.0,0,1.0
452,'1',0.0,0.0,155.917,-155.917,1.00413,0,100.0,0.0,1.0,0.0,0.0,1.0,1,100.0,502.554,25.128,1,1.0,0,1.0,0,1.0,0,1.0,0,1.0
453,'1',0.0,0.0,155.856,-155.856,1.00413,0,100.0,0.0,1.0,0.0,0.0,1.0,0,100.0,502.356,25.118,1,1.0,0,1.0,0,1.0,0,1.0,0,1.0
455,'1',0.0,0.0,155.644,-155.644,1.00413,0,100.0,0.0,1.0,0.0,0.0,1.0,1,100.0,501.673,25.084,1,1.0,0,1.0,0,1.0,0,1.0,0,1.0
456,'1',0.0,0.0,155.66,-155.66,1.00413,0,100.0,0.0,1.0,0.0,0.0,1.0,0,100.0,501.726,25.086,1,1.0,0,1.0,0,1.0,0,1.0,0,1.0
457,'1',0.0,0.0,127.567,-127.567,1.00413,0,100.0,0.0,1.0,0.0,0.0,1.0,0,100.0,411.176,20.559,1,1.0,0,1.0,0,1.0,0,1.0,0,1.0
458,'1',0.0,0.0,127.567,-127.567,1.00413,0,100.0,0.0,1.0,0.0,0.0,1.0,0,100.0,411.176,20.559,1,1.0,0,1.0,0,1.0,0,1.0,0,1.0
459,'1',0.0,0.0,155.49,-155.49,1.00413,0,100.0,0.0,1.0,0.0,0.0,1.0,1,100.0,501.177,25.059,1,1.0,0,1.0,0,1.0,0,1.0,0,1.0
460,'1',0.0,0.0,125.925,-125.925,1.00413,0,100.0,0.0,1.0,0.0,0.0,1.0,0,100.0,405.882,20.294,1,1.0,0,1.0,0,1.0,0,1.0,0,1.0
461,'1',0.0,0.0,125.925,-125.925,1.00413,0,100.0,0.0,1.0,0.0,0.0,1.0,0,100.0,405.882,20.294,1,1.0,0,1.0,0,1.0,0,1.0,0,1.0
462,'1',0.0,0.0,155.811,-155.811,1.00413,0,100.0,0.0,1.0,0.0,0.0,1.0,0,100.0,502.212,25.111,1,1.0,0,1.0,0,1.0,0,1.0,0,1.0
463,'97',0.0,0.0,547.5,-547.5,1.0,0,100.0,0.0,0.1,0.0,0.0,1.0,1,100.0,40.0,3.0,1,1.0,0,1.0,0,1.0,0,1.0,0,1.0
464,'1',0.0,0.0,155.835,-155.835,1.00413,0,100.0,0.0,1.0,0.0,0.0,1.0,0,100.0,502.287,25.114,1,1.0,0,1.0,0,1.0,0,1.0,0,1.0
465,'1',0.0,0.0,155.835,-155.835,1.00413,0,100.0,0.0,1.0,0.0,0.0,1.0,0,100.0,502.287,22.5,1,1.0,0,1.0,0,1.0,0,1.0,0,1.0
468,'99',0.0,0.0,145.406,-145.406,0.9962,0,100.0,0.0,1.0,0.0,0.0,1.0,1,100.0,468.673,23.434,1,1.0,0,1.0,0,1.0,0,1.0,0,1.0
469,'99',0.0,0.0,288.172,-288.172,1.0007,0,100.0,0.0,1.0,0.0,0.0,1.0,1,100.0,928.836,46.442,1,1.0,0,1.0,0,1.0,0,1.0,0,1.0
470,'99',0.0,0.0,404.842,-404.842,0.9954,0,100.0,0.0,1.0,0.0,0.0,1.0,1,100.0,1304.888,65.244,1,1.0,0,1.0,0,1.0,0,1.0,0,1.0
480,'1',0.0,0.0,227.759,-227.759,0.99897,0,100.0,0.0,1.0,0.0,0.0,1.0,0,100.0,734.113,36.706,1,1.0,0,1.0,0,1.0,0,1.0,0,1.0
488,'99',0.0,0.0,63.368,-63.368,0.99,0,100.0,0.0,1.0,0.0,0.0,1.0,1,100.0,204.248,10.212,1,1.0,0,1.0,0,1.0,0,1.0,0,1.0
489,'99',0.0,0.0,63.282,-63.282,0.9901,0,100.0,0.0,1.0,0.0,0.0,1.0,1,100.0,203.969,10.198,1,1.0,0,1.0,0,1.0,0,1.0,0,1.0
507,'99',0.0,0.0,13.961,-13.961,1.0065,0,100.0,0.0,1.0,0.0,0.0,1.0,1,100.0,44.999,3.0,1,1.0,0,1.0,0,1.0,0,1.0,0,1.0
509,'1',0.0,0.0,28.47,-28.47,1.00788,0,78.0,0.0,0.2,0.0,0.0,1.0,0,100.0,91.765,11.0,1,1.0,0,1.0,0,1.0,0,1.0,0,1.0
527,'1',0.0,0.0,31.481,-31.481,1.00788,0,83.96,0.0,0.2,0.0,0.0,1.0,0,100.0,101.471,21.0,1,1.0,0,1.0,0,1.0,0,1.0,0,1.0
546,'1',0.0,0.0,98.083,-98.083,1.00788,0,258.66,0.0,0.18,0.0,0.0,1.0,0,100.0,316.143,15.807,1,1.0,0,1.0,0,1.0,0,1.0,0,1.0
558,'99',0.0,0.0,9.919,-9.919,1.0074,0,100.0,0.0,1.0,0.0,0.0,1.0,1,100.0,31.969,3.0,1,1.0,0,1.0,0,1.0,0,1.0,0,1.0
588,'1',0.0,0.0,98.094,-98.094,1.00788,0,282.49,0.0,0.18,0.0,0.0,1.0,0,100.0,316.177,120.0,1,1.0,0,1.0,0,1.0,0,1.0,0,1.0
589,'1',0.0,0.0,98.094,-98.094,1.00788,0,281.34,0.0,0.18,0.0,0.0,1.0,0,100.0,316.177,120.0,1,1.0,0,1.0,0,1.0,0,1.0,0,1.0
594,'1',0.0,0.0,93.531,-93.531,1.00788,0,252.98,0.0,0.18,0.0,0.0,1.0,0,100.0,301.471,135.0,1,1.0,0,1.0,0,1.0,0,1.0,0,1.0
595,'1',0.0,0.0,98.094,-98.094,1.00358,0,267.71,0.0,0.18,0.0,0.0,1.0,0,100.0,316.177,135.0,1,1.0,0,1.0,0,1.0,0,1.0,0,1.0
595,'2',0.0,0.0,93.531,-93.531,1.00358,0,256.16,0.0,0.18,0.0,0.0,1.0,0,100.0,301.471,135.0,1,1.0,0,1.0,0,1.0,0,1.0,0,1.0
596,'1',0.0,0.0,99.134,-99.134,1.00269,0,270.08,0.0,0.18,0.0,0.0,1.0,0,100.0,319.529,135.0,1,1.0,0,1.0,0,1.0,0,1.0,0,1.0
596,'2',0.0,0.0,97.048,-97.048,1.00269,0,246.1,0.0,0.18,0.0,0.0,1.0,0,100.0,312.807,135.0,1,1.0,0,1.0,0,1.0,0,1.0,0,1.0
600,'2',0.0,0.0,20.075,-20.075,1.00788,0,55.0,0.0,0.2,0.0,0.0,1.0,0,100.0,64.706,35.833,1,1.0,0,1.0,0,1.0,0,1.0,0,1.0
601,'1',0.0,0.0,20.075,-20.075,1.00788,0,55.0,0.0,0.2,0.0,0.0,1.0,1,100.0,64.706,35.833,1,1.0,0,1.0,0,1.0,0,1.0,0,1.0
606,'1',0.0,0.0,6.205,-6.205,1.00788,0,17.0,0.0,0.2,0.0,0.0,1.0,0,100.0,20.0,3.0,1,1.0,0,1.0,0,1.0,0,1.0,0,1.0
630,'1',0.0,0.0,5.475,-5.475,1.00788,0,15.0,0.0,0.2,0.0,0.0,1.0,1,100.0,17.647,3.0,1,1.0,0,1.0,0,1.0,0,1.0,0,1.0
634,'1',0.0,0.0,98.094,-98.094,1.00858,0,273.78,0.0,0.18,0.0,0.0,1.0,0,100.0,316.177,120.0,1,1.0,0,1.0,0,1.0,0,1.0,0,1.0
653,'2',0.0,0.0,4.38,-4.38,1.00718,0,12.0,0.0,0.2,0.0,0.0,1.0,1,100.0,14.118,3.0,1,1.0,0,1.0,0,1.0,0,1.0,0,1.0
654,'1',0.0,0.0,92.345,-92.345,1.00788,0,14.4,0.0,0.2,0.0,0.0,1.0,0,100.0,297.647,14.882,1,1.0,0,1.0,0,1.0,0,1.0,0,1.0
686,'99',0.0,0.0,30.606,-30.606,1.0051,0,100.0,0.0,1.0,0.0,0.0,1.0,1,100.0,98.648,4.932,1,1.0,0,1.0,0,1.0,0,1.0,0,1.0
687,'1',0.0,0.0,93.531,-93.531,1.00858,0,267.05,0.0,0.18,0.0,0.0,1.0,0,100.0,301.471,135.0,1,1.0,0,1.0,0,1.0,0,1.0,0,1.0
689,'2',0.0,0.0,93.531,-93.531,1.00858,0,258.02,0.0,0.18,0.0,0.0,1.0,1,100.0,301.471,135.0,1,1.0,0,1.0,0,1.0,0,1.0,0,1.0
694,'1',0.0,0.0,91.98,-91.98,1.00487,0,34.76,0.0,0.2,0.0,0.0,1.0,0,100.0,296.471,14.824,1,1.0,0,1.0,0,1.0,0,1.0,0,1.0
695,'1',0.0,0.0,94.17,-94.17,1.00488,0,42.43,0.0,0.2,0.0,0.0,1.0,0,100.0,303.529,15.176,1,1.0,0,1.0,0,1.0,0,1.0,0,1.0
696,'1',0.0,0.0,97.82,-97.82,1.00448,0,19.32,0.0,0.2,0.0,0.0,1.0,0,100.0,315.294,15.765,1,1.0,0,1.0,0,1.0,0,1.0,0,1.0
697,'99',0.0,0.0,145.304,-145.304,0.9994,0,100.0,0.0,1.0,0.0,0.0,1.0,1,100.0,468.346,23.417,1,1.0,0,1.0,0,1.0,0,1.0,0,1.0
701,'1',0.0,0.0,91.98,-91.98,1.00718,0,1.0,0.0,0.2,0.0,0.0,1.0,0,100.0,296.471,14.824,1,1.0,0,1.0,0,1.0,0,1.0,0,1.0
704,'2',0.0,0.0,4.745,-4.745,1.00436,0,13.0,0.0,0.2,0.0,0.0,1.0,0,100.0,15.294,2.0,1,1.0,0,1.0,0,1.0,0,1.0,0,1.0
708,'2',0.0,0.0,24.234,-24.234,1.00718,0,67.62,0.0,0.2,0.0,0.0,1.0,0,100.0,78.112,26.0,1,1.0,0,1.0,0,1.0,0,1.0,0,1.0
710,'99',0.0,0.0,27.874,-27.874,1.008,0,100.0,0.0,1.0,0.0,0.0,1.0,1,100.0,89.845,4.492,1,1.0,0,1.0,0,1.0,0,1.0,0,1.0
732,'1',0.0,0.0,103.295,-103.295,1.00647,0,3.0,0.0,0.2,0.0,0.0,1.0,0,100.0,332.941,16.647,1,1.0,0,1.0,0,1.0,0,1.0,0,1.0
733,'1',0.0,0.0,5.475,-5.475,1.00718,0,15.0,0.0,0.2,0.0,0.0,1.0,0,100.0,17.647,3.0,1,1.0,0,1.0,0,1.0,0,1.0,0,1.0
739,'1',0.0,0.0,96.36,-96.36,1.00366,0,4.0,0.0,0.2,0.0,0.0,1.0,1,100.0,310.588,15.529,1,1.0,0,1.0,0,1.0,0,1.0,0,1.0
756,'3',0.0,0.0,157.406,-157.406,1.00893,0,449.45,0.0,0.21,0.0,0.0,1.0,1,100.0,507.353,240.0,1,1.0,0,1.0,0,1.0,0,1.0,0,1.0
757,'1',0.0,0.0,168.812,-168.812,1.00385,0,455.56,0.0,0.21,0.0,0.0,1.0,0,100.0,544.118,240.0,1,1.0,0,1.0,0,1.0,0,1.0,0,1.0
757,'2',0.0,0.0,135.05,-135.05,1.00385,0,397.31,0.0,0.21,0.0,0.0,1.0,1,100.0,435.294,240.0,1,1.0,0,1.0,0,1.0,0,1.0,0,1.0
758,'1',0.0,0.0,617.946,-617.946,1.00225,0,616.84,0.0,0.235,0.0,0.0,1.0,1,100.0,1991.769,5.0,1,1.0,0,1.0,0,1.0,0,1.0,0,1.0
758,'2',0.0,0.0,617.946,-617.946,1.00225,0,616.84,0.0,0.235,0.0,0.0,1.0,1,100.0,1991.769,5.0,1,1.0,0,1.0,0,1.0,0,1.0,0,1.0
758,'3',0.0,0.0,617.946,-617.946,1.00225,0,616.84,0.0,0.235,0.0,0.0,1.0,1,100.0,1991.769,5.0,1,1.0,0,1.0,0,1.0,0,1.0,0,1.0
759,'1',0.0,0.0,168.812,-168.812,1.00225,0,451.84,0.0,0.21,0.0,0.0,1.0,1,100.0,544.118,240.0,1,1.0,0,1.0,0,1.0,0,1.0,0,1.0
759,'2',0.0,0.0,155.125,-155.125,1.00225,0,416.51,0.0,0.21,0.0,0.0,1.0,0,100.0,500.0,240.0,1,1.0,0,1.0,0,1.0,0,1.0,0,1.0
759,'3',0.0,0.0,155.125,-155.125,1.00225,0,416.51,0.0,0.21,0.0,0.0,1.0,1,100.0,500.0,240.0,1,1.0,0,1.0,0,1.0,0,1.0,0,1.0
784,'1',0.0,0.0,159.688,-159.688,1.00507,0,477.9,0.0,0.21,0.0,0.0,1.0,1,100.0,514.706,240.0,1,1.0,0,1.0,0,1.0,0,1.0,0,1.0
792,'1',0.0,0.0,10.95,-10.95,1.00718,0,30.0,0.0,0.2,0.0,0.0,1.0,0,100.0,35.294,3.0,1,1.0,0,1.0,0,1.0,0,1.0,0,1.0
805,'1',0.0,0.0,100.74,-100.74,1.00247,0,1.08,0.0,0.2,0.0,0.0,1.0,0,100.0,324.706,16.235,1,1.0,0,1.0,0,1.0,0,1.0,0,1.0
805,'2',0.0,0.0,96.36,-96.36,1.00247,0,1.0,0.0,0.2,0.0,0.0,1.0,0,100.0,310.588,15.529,1,1.0,0,1.0,0,1.0,0,1.0,0,1.0
805,'3',0.0,0.0,100.01,-100.01,1.00247,0,1.0,0.0,0.2,0.0,0.0,1.0,1,100.0,322.353,16.118,1,1.0,0,1.0,0,1.0,0,1.0,0,1.0
809,'1',0.0,0.0,21.9,-21.9,1.00718,0,60.0,0.0,0.2,0.0,0.0,1.0,0,100.0,70.588,25.0,1,1.0,0,1.0,0,1.0,0,1.0,0,1.0
812,'1',0.0,0.0,97.455,-97.455,1.00718,0,4.33,0.0,0.2,0.0,0.0,1.0,1,100.0,314.118,1.667,1,1.0,0,1.0,0,1.0,0,1.0,0,1.0
830,'1',0.0,0.0,100.74,-100.74,1.00788,0,0.43,0.0,0.2,0.0,0.0,1.0,0,100.0,324.706,16.235,1,1.0,0,1.0,0,1.0,0,1.0,0,1.0
...
0 / END OF GENERATOR DATA BEGIN BRANCH DATA
1,2,'1',2e-05,0.00021,0.0,876.0,1051.2,1576.8,0.0,0.0,0.0,0.0,1,2,0.0,1,1.0,0,1.0,0,1.0,0,1.0
1,10,'1',0.00593,0.04093,0.07215,341.0,409.2,613.8,0.0,0.0,0.0,0.0,1,2,0.0,1,1.0,0,1.0,0,1.0,0,1.0
2,507,'TL',0.0001,0.01,0.0,83.7,100.44,150.66,0.0,0.0,0.0,0.0,1,1,0.0,1,1.0,0,1.0,0,1.0,0,1.0
3,4,'1',2e-05,0.00021,0.0,876.0,1051.2,1576.8,0.0,0.0,0.0,0.0,1,2,0.0,1,1.0,0,1.0,0,1.0,0,1.0
3,8,'1',0.00777,0.04128,0.06391,197.0,236.4,354.6,0.0,0.0,0.0,0.0,1,2,0.0,1,1.0,0,1.0,0,1.0,0,1.0
4,1027,'TL',0.0001,0.01,0.0,198.78,238.54,357.81,0.0,0.0,0.0,0.0,1,1,0.0,53,1.0,0,1.0,0,1.0,0,1.0
5,6,'1',2e-05,0.00021,0.0,876.0,1051.2,1576.8,0.0,0.0,0.0,0.0,1,2,0.0,1,1.0,0,1.0,0,1.0,0,1.0
5,9,'1',0.00488,0.03362,0.05961,341.0,409.2,613.8,0.0,0.0,0.0,0.0,1,1,0.0,1,1.0,0,1.0,0,1.0,0,1.0
6,217,'TL',0.0001,0.01,0.0,445.51,534.61,801.91,0.0,0.0,0.0,0.0,1,1,0.0,3,1.0,0,1.0,0,1.0,0,1.0
7,8,'1',2e-05,0.00021,0.0,876.0,1051.2,1576.8,0.0,0.0,0.0,0.0,1,2,0.0,1,1.0,0,1.0,0,1.0,0,1.0
7,10,'1',0.00455,0.03157,0.05531,231.0,277.2,415.8,0.0,0.0,0.0,0.0,1,2,0.0,1,1.0,0,1.0,0,1.0,0,1.0
9,10,'1',2e-05,0.00021,0.0,876.0,1051.2,1576.8,0.0,0.0,0.0,0.0,1,2,0.0,1,1.0,0,1.0,0,1.0,0,1.0
9,2095,'TL',0.0001,0.01,0.0,140.51,168.61,252.91,0.0,0.0,0.0,0.0,1,1,0.0,11,1.0,0,1.0,0,1.0,0,1.0
11,23,'1',0.03868,0.10116,0.0108,87.61,105.13,157.7,0.0,0.0,0.0,0.0,1,2,0.0,1,1.0,0,1.0,0,1.0,0,1.0
11,26,'1',0.00719,0.02248,0.00246,50.0,60.0,90.0,0.0,0.0,0.0,0.0,1,2,0.0,1,1.0,0,1.0,0,1.0,0,1.0
11,43,'1',0.01636,0.04132,0.0045,50.0,60.0,90.0,0.0,0.0,0.0,0.0,1,2,0.0,1,1.0,0,1.0,0,1.0,0,1.0
12,14,'1',0.00752,0.02207,0.00251,80.22,96.26,144.4,0.0,0.0,0.0,0.0,1,2,0.0,1,1.0,0,1.0,0,1.0,0,1.0
12,25,'1',0.00719,0.02256,0.00247,50.0,60.0,90.0,0.0,0.0,0.0,0.0,1,2,0.0,1,1.0,0,1.0,0,1.0,0,1.0
13,59,'1',0.02256,0.04314,0.004,50.0,60.0,90.0,0.0,0.0,0.0,0.0,1,1,0.0,1,1.0,0,1.0,0,1.0,0,1.0
14,245,'TL',0.0001,0.01,0.0,83.7,100.44,150.66,0.0,0.0,0.0,0.0,1,1,0.0,4,1.0,0,1.0,0,1.0,0,1.0
15,16,'1',0.00058,0.00157,0.00021,50.0,60.0,90.0,0.0,0.0,0.0,0.0,1,2,0.0,1,1.0,0,1.0,0,1.0,0,1.0
16,58,'1',0.00107,0.00298,0.0004,112.72,135.26,202.9,0.0,0.0,0.0,0.0,1,1,0.0,1,1.0,0,1.0,0,1.0,0,1.0
16,64,'1',0.00182,0.00529,0.00071,111.39,133.67,200.5,0.0,0.0,0.0,0.0,1,2,0.0,1,1.0,0,1.0,0,1.0,0,1.0
17,20,'1',0.00496,0.0162,0.00164,75.0,90.0,135.0,0.0,0.0,0.0,0.0,1,2,0.0,1,1.0,0,1.0,0,1.0,0,1.0
18,62,'1',0.00033,0.00099,0.00013,50.0,60.0,90.0,0.0,0.0,0.0,0.0,1,1,0.0,1,1.0,0,1.0,0,1.0,0,1.0
19,63,'1',0.00033,0.00091,0.00012,50.0,60.0,90.0,0.0,0.0,0.0,0.0,1,1,0.0,1,1.0,0,1.0,0,1.0,0,1.0
20,28,'1',0.00934,0.0257,0.00253,63.0,75.6,113.4,0.0,0.0,0.0,0.0,1,2,0.0,1,1.0,0,1.0,0,1.0,0,1.0
20,30,'1',0.01504,0.04033,0.00401,63.0,75.6,113.4,0.0,0.0,0.0,0.0,1,2,0.0,1,1.0,0,1.0,0,1.0,0,1.0
21,22,'1',8e-05,0.00083,0.0,438.0,525.6,788.4,0.0,0.0,0.0,0.0,1,2,0.0,1,1.0,0,1.0,0,1.0,0,1.0
21,44,'1',0.00512,0.01669,0.00168,114.0,136.8,205.2,0.0,0.0,0.0,0.0,1,2,0.0,1,1.0,0,1.0,0,1.0,0,1.0
22,46,'1',0.02826,0.0924,0.00933,99.0,118.8,178.2,0.0,0.0,0.0,0.0,1,1,0.0,1,1.0,0,1.0,0,1.0,0,1.0
24,46,'1',0.01669,0.04364,0.00566,106.38,127.66,191.48,0.0,0.0,0.0,0.0,1,2,0.0,1,1.0,0,1.0,0,1.0,0,1.0
24,271,'TL',0.0001,0.01,0.0,83.7,100.44,150.66,0.0,0.0,0.0,0.0,1,2,0.0,5,1.0,0,1.0,0,1.0,0,1.0
25,26,'1',8e-05,0.00083,0.0,50.0,60.0,90.0,0.0,0.0,0.0,0.0,1,2,0.0,1,1.0,0,1.0,0,1.0,0,1.0
25,38,'1',0.01595,0.0414,0.00404,50.0,60.0,90.0,0.0,0.0,0.0,0.0,1,2,0.0,1,1.0,0,1.0,0,1.0,0,1.0
26,37,'1',0.01595,0.04132,0.00403,50.0,60.0,90.0,0.0,0.0,0.0,0.0,1,2,0.0,1,1.0,0,1.0,0,1.0,0,1.0
26,41,'1',0.02926,0.0514,0.00489,50.0,60.0,90.0,0.0,0.0,0.0,0.0,1,2,0.0,1,1.0,0,1.0,0,1.0,0,1.0
27,28,'1',0.00554,0.00959,0.00095,50.0,60.0,90.0,0.0,0.0,0.0,0.0,1,2,0.0,1,1.0,0,1.0,0,1.0,0,1.0
28,64,'1',0.0057,0.01479,0.0015,63.0,75.6,113.4,0.0,0.0,0.0,0.0,1,2,0.0,1,1.0,0,1.0,0,1.0,0,1.0
29,30,'1',0.00017,0.00041,6e-05,75.0,90.0,135.0,0.0,0.0,0.0,0.0,1,1,0.0,1,1.0,0,1.0,0,1.0,0,1.0
30,65,'1',8e-05,0.00025,2e-05,75.0,90.0,135.0,0.0,0.0,0.0,0.0,1,2,0.0,1,1.0,0,1.0,0,1.0,0,1.0
31,32,'1',8e-05,0.00083,0.0,438.0,525.6,788.4,0.0,0.0,0.0,0.0,1,2,0.0,1,1.0,0,1.0,0,1.0,0,1.0
31,69,'1',0.01298,0.04074,0.0045,75.0,90.0,135.0,0.0,0.0,0.0,0.0,1,2,0.0,1,1.0,0,1.0,0,1.0,0,1.0
32,530,'TL',0.0001,0.01,0.0,83.7,100.44,150.66,0.0,0.0,0.0,0.0,1,2,0.0,2,1.0,0,1.0,0,1.0,0,1.0
33,34,'1',0.00165,0.00537,0.00054,50.0,60.0,90.0,0.0,0.0,0.0,0.0,1,1,0.0,1,1.0,0,1.0,0,1.0,0,1.0
34,54,'1',0.01926,0.06198,0.00647,103.29,123.95,185.92,0.0,0.0,0.0,0.0,1,1,0.0,1,1.0,0,1.0,0,1.0,0,1.0
34,68,'1',0.01041,0.03388,0.00346,114.08,136.9,205.34,0.0,0.0,0.0,0.0,1,2,0.0,1,1.0,0,1.0,0,1.0,0,1.0
35,37,'1',0.0005,0.00107,0.00014,50.0,60.0,90.0,0.0,0.0,0.0,0.0,1,1,0.0,1,1.0,0,1.0,0,1.0,0,1.0
36,38,'1',0.0005,0.00116,0.00014,50.0,60.0,90.0,0.0,0.0,0.0,0.0,1,1,0.0,1,1.0,0,1.0,0,1.0,0,1.0
37,64,'1',0.03174,0.08347,0.00816,50.0,60.0,90.0,0.0,0.0,0.0,0.0,1,2,0.0,1,1.0,0,1.0,0,1.0,0,1.0
38,65,'1',0.03174,0.08347,0.00816,50.0,60.0,90.0,0.0,0.0,0.0,0.0,1,2,0.0,1,1.0,0,1.0,0,1.0,0,1.0
39,66,'1',0.03826,0.04818,0.00455,83.83,100.59,150.89,0.0,0.0,0.0,0.0,1,2,0.0,1,1.0,0,1.0,0,1.0,0,1.0
39,1234,'TL',0.0001,0.01,0.0,83.7,100.44,150.66,0.0,0.0,0.0,0.0,1,1,0.0,51,1.0,0,1.0,0,1.0,0,1.0
40,41,'1',8e-05,0.00083,0.0,438.0,525.6,788.4,0.0,0.0,0.0,0.0,1,2,0.0,1,1.0,0,1.0,0,1.0,0,1.0
40,59,'1',0.04025,0.07132,0.00662,47.0,56.4,84.6,0.0,0.0,0.0,0.0,1,2,0.0,1,1.0,0,1.0,0,1.0,0,1.0
42,43,'1',0.00058,0.00099,0.0001,50.0,60.0,90.0,0.0,0.0,0.0,0.0,1,1,0.0,1,1.0,0,1.0,0,1.0,0,1.0
43,2259,'TL',0.0001,0.01,0.0,50.0,60.0,90.0,0.0,0.0,0.0,0.0,1,1,0.0,12,1.0,0,1.0,0,1.0,0,1.0
44,45,'1',8e-05,0.00083,0.0,438.0,525.6,788.4,0.0,0.0,0.0,0.0,1,2,0.0,1,1.0,0,1.0,0,1.0,0,1.0
44,1951,'TL',0.0001,0.01,0.0,83.7,100.44,150.66,0.0,0.0,0.0,0.0,1,1,0.0,37,1.0,0,1.0,0,1.0,0,1.0
45,52,'1',0.03438,0.11107,0.01156,50.0,60.0,90.0,0.0,0.0,0.0,0.0,1,2,0.0,1,1.0,0,1.0,0,1.0,0,1.0
45,70,'1',0.01041,0.03405,0.00418,114.0,136.8,205.2,0.0,0.0,0.0,0.0,1,2,0.0,1,1.0,0,1.0,0,1.0,0,1.0
46,49,'1',0.03488,0.0881,0.01298,117.72,141.26,211.9,0.0,0.0,0.0,0.0,1,2,0.0,1,1.0,0,1.0,0,1.0,0,1.0
46,53,'1',0.00669,0.0162,0.00254,156.14,187.36,281.04,0.0,0.0,0.0,0.0,1,1,0.0,1,1.0,0,1.0,0,1.0,0,1.0
46,2246,'TL',0.0001,0.01,0.0,83.7,100.44,150.66,0.0,0.0,0.0,0.0,1,1,0.0,13,1.0,0,1.0,0,1.0,0,1.0
47,48,'1',8e-05,0.00083,0.0,438.0,525.6,788.4,0.0,0.0,0.0,0.0,1,2,0.0,1,1.0,0,1.0,0,1.0,0,1.0
47,69,'1',0.0038,0.01083,0.00145,75.0,90.0,135.0,0.0,0.0,0.0,0.0,1,2,0.0,1,1.0,0,1.0,0,1.0,0,1.0
48,61,'1',0.00711,0.02074,0.00265,75.0,90.0,135.0,0.0,0.0,0.0,0.0,1,2,0.0,1,1.0,0,1.0,0,1.0,0,1.0
49,1344,'TL',0.0001,0.01,0.0,86.7,104.04,156.06,0.0,0.0,0.0,0.0,1,1,0.0,52,1.0,0,1.0,0,1.0,0,1.0
50,51,'1',0.00017,0.00041,5e-05,50.0,60.0,90.0,0.0,0.0,0.0,0.0,1,1,0.0,1,1.0,0,1.0,0,1.0,0,1.0
51,57,'1',0.00066,0.00107,0.00018,97.82,117.38,176.08,0.0,0.0,0.0,0.0,1,2,0.0,1,1.0,0,1.0,0,1.0,0,1.0
51,59,'1',0.02702,0.05752,0.00544,97.82,117.39,176.08,0.0,0.0,0.0,0.0,1,1,0.0,1,1.0,0,1.0,0,1.0,0,1.0
52,69,'1',0.0262,0.08496,0.00871,99.0,118.8,178.2,0.0,0.0,0.0,0.0,1,2,0.0,1,1.0,0,1.0,0,1.0,0,1.0
53,2148,'TL',0.0001,0.01,0.0,128.96,154.76,232.13,0.0,0.0,0.0,0.0,1,2,0.0,15,1.0,0,1.0,0,1.0,0,1.0
54,55,'1',8e-05,0.00083,0.0,438.0,525.6,788.4,0.0,0.0,0.0,0.0,1,2,0.0,1,1.0,0,1.0,0,1.0,0,1.0
55,64,'1',0.00231,0.00744,0.00077,75.0,90.0,135.0,0.0,0.0,0.0,0.0,1,2,0.0,1,1.0,0,1.0,0,1.0,0,1.0
56,57,'1',8e-05,0.00083,0.0,438.0,525.6,788.4,0.0,0.0,0.0,0.0,1,2,0.0,1,1.0,0,1.0,0,1.0,0,1.0
56,66,'1',0.00727,0.00975,0.00189,80.63,96.76,145.14,0.0,0.0,0.0,0.0,1,2,0.0,1,1.0,0,1.0,0,1.0,0,1.0
58,2244,'TL',0.0001,0.01,0.0,83.7,100.44,150.66,0.0,0.0,0.0,0.0,1,1,0.0,14,1.0,0,1.0,0,1.0,0,1.0
59,68,'1',0.0119,0.03686,0.00418,129.05,154.86,232.29,0.0,0.0,0.0,0.0,1,2,0.0,1,1.0,0,1.0,0,1.0,0,1.0
60,61,'1',0.00124,0.00347,0.00046,50.0,60.0,90.0,0.0,0.0,0.0,0.0,1,1,0.0,1,1.0,0,1.0,0,1.0,0,1.0
62,63,'1',8e-05,0.00083,0.0,438.0,525.6,788.4,0.0,0.0,0.0,0.0,1,2,0.0,1,1.0,0,1.0,0,1.0,0,1.0
62,65,'1',0.01008,0.03182,0.00345,75.0,90.0,135.0,0.0,0.0,0.0,0.0,1,1,0.0,1,1.0,0,1.0,0,1.0,0,1.0
63,68,'1',0.0176,0.05686,0.00587,97.87,117.44,176.17,0.0,0.0,0.0,0.0,1,2,0.0,1,1.0,0,1.0,0,1.0,0,1.0
66,67,'1',8e-05,0.00083,0.0,50.0,60.0,90.0,0.0,0.0,0.0,0.0,1,2,0.0,1,1.0,0,1.0,0,1.0,0,1.0
67,1980,'TL',0.0001,0.01,0.0,83.7,100.44,150.66,0.0,0.0,0.0,0.0,1,2,0.0,38,1.0,0,1.0,0,1.0,0,1.0
71,72,'1',2e-05,0.00021,0.0,50.0,60.0,90.0,0.0,0.0,0.0,0.0,1,2,0.0,1,1.0,0,1.0,0,1.0,0,1.0
71,76,'1',0.00568,0.04012,0.07033,317.0,380.4,570.6,0.0,0.0,0.0,0.0,1,2,0.0,1,1.0,0,1.0,0,1.0,0,1.0
71,81,'1',0.00105,0.00733,0.01258,231.0,277.2,415.8,0.0,0.0,0.0,0.0,1,2,0.0,1,1.0,0,1.0,0,1.0,0,1.0
73,74,'1',2e-05,0.00021,0.0,50.0,60.0,90.0,0.0,0.0,0.0,0.0,1,2,0.0,1,1.0,0,1.0,0,1.0,0,1.0
73,75,'1',0.01062,0.0789,0.12085,631.86,758.23,1137.35,0.0,0.0,0.0,0.0,1,2,0.0,1,1.0,0,1.0,0,1.0,0,1.0
73,78,'1',0.01058,0.07762,0.12203,596.86,716.23,1074.35,0.0,0.0,0.0,0.0,1,2,0.0,1,1.0,0,1.0,0,1.0,0,1.0
75,76,'1',2e-05,0.00021,0.0,876.0,1051.2,1576.8,0.0,0.0,0.0,0.0,1,1,0.0,1,1.0,0,1.0,0,1.0,0,1.0
75,79,'1',0.00469,0.03486,0.05338,317.0,380.4,570.6,0.0,0.0,0.0,0.0,1,2,0.0,1,1.0,0,1.0,0,1.0,0,1.0
75,150,'1',0.0018,0.01616,0.0484,754.02,904.82,1357.24,0.0,0.0,0.0,0.0,1,2,0.0,1,1.0,0,1.0,0,1.0,0,1.0
76,150,'1',0.0018,0.01616,0.0484,734.76,881.71,1322.57,0.0,0.0,0.0,0.0,1,2,0.0,1,1.0,0,1.0,0,1.0,0,1.0
77,1621,'TL',0.0001,0.01,0.0,399.91,479.89,719.84,0.0,0.0,0.0,0.0,1,2,0.0,48,1.0,0,1.0,0,1.0,0,1.0
78,581,'TL',0.0001,0.01,0.0,179.0,196.9,214.8,0.0,0.0,0.0,0.0,1,2,0.0,28,1.0,0,1.0,0,1.0,0,1.0
79,80,'1',2e-05,0.00021,0.0,50.0,60.0,90.0,0.0,0.0,0.0,0.0,1,2,0.0,1,1.0,0,1.0,0,1.0,0,1.0
79,82,'1',0.00744,0.05397,0.09307,231.0,277.2,415.8,0.0,0.0,0.0,0.0,1,2,0.0,1,1.0,0,1.0,0,1.0,0,1.0
81,82,'1',2e-05,0.00021,0.0,50.0,60.0,90.0,0.0,0.0,0.0,0.0,1,2,0.0,1,1.0,0,1.0,0,1.0,0,1.0
83,108,'1',0.01011,0.03425,0.00339,50.0,60.0,90.0,0.0,0.0,0.0,0.0,1,1,0.0,1,1.0,0,1.0,0,1.0,0,1.0
83,124,'1',0.00228,0.00772,0.00076,120.0,144.0,216.0,0.0,0.0,0.0,0.0,1,1,0.0,1,1.0,0,1.0,0,1.0,0,1.0
84,114,'1',0.0138,0.02421,0.0023,90.58,108.7,163.04,0.0,0.0,0.0,0.0,1,2,0.0,1,1.0,0,1.0,0,1.0,0,1.0
84,143,'1',0.01877,0.03282,0.00313,107.46,128.95,193.43,0.0,0.0,0.0,0.0,1,1,0.0,1,1.0,0,1.0,0,1.0,0,1.0
85,92,'1',9e-05,0.00069,7e-05,186.5,223.8,335.7,0.0,0.0,0.0,0.0,1,1,0.0,1,1.0,0,1.0,0,1.0,0,1.0
85,101,'1',0.00555,0.01818,0.00186,148.68,178.42,267.62,0.0,0.0,0.0,0.0,1,2,0.0,1,1.0,0,1.0,0,1.0,0,1.0
86,140,'1',0.02182,0.07107,0.00737,120.0,144.0,216.0,0.0,0.0,0.0,0.0,1,2,0.0,1,1.0,0,1.0,0,1.0,0,1.0
86,1637,'TL',0.0001,0.01,0.0,146.4,175.68,263.52,0.0,0.0,0.0,0.0,1,1,0.0,47,1.0,0,1.0,0,1.0,0,1.0
87,113,'1',0.05033,0.13388,0.01203,50.0,60.0,90.0,0.0,0.0,0.0,0.0,1,1,0.0,1,1.0,0,1.0,0,1.0,0,1.0
87,141,'1',0.02851,0.09843,0.00896,50.0,60.0,90.0,0.0,0.0,0.0,0.0,1,2,0.0,1,1.0,0,1.0,0,1.0,0,1.0
88,91,'1',0.02174,0.05,0.00501,108.6,130.32,195.48,0.0,0.0,0.0,0.0,1,2,0.0,1,1.0,0,1.0,0,1.0,0,1.0
88,107,'1',0.03471,0.06744,0.00663,104.92,125.9,188.86,0.0,0.0,0.0,0.0,1,2,0.0,1,1.0,0,1.0,0,1.0,0,1.0
89,101,'1',0.02058,0.0676,0.00569,164.41,197.3,295.95,0.0,0.0,0.0,0.0,1,2,0.0,1,1.0,0,1.0,0,1.0,0,1.0
89,112,'1',0.01983,0.05504,0.00595,76.0,91.2,136.8,0.0,0.0,0.0,0.0,1,1,0.0,1,1.0,0,1.0,0,1.0,0,1.0
89,123,'1',0.00926,0.0186,0.00181,76.0,91.2,136.8,0.0,0.0,0.0,0.0,1,2,0.0,1,1.0,0,1.0,0,1.0,0,1.0
89,144,'1',0.00375,0.01025,0.00103,102.0,122.4,183.6,0.0,0.0,0.0,0.0,1,1,0.0,1,1.0,0,1.0,0,1.0,0,1.0
90,107,'1',0.04669,0.09545,0.00939,120.63,144.76,217.13,0.0,0.0,0.0,0.0,1,2,0.0,1,1.0,0,1.0,0,1.0,0,1.0
90,663,'TL',0.0001,0.01,0.0,83.7,100.44,150.66,0.0,0.0,0.0,0.0,1,2,0.0,27,1.0,0,1.0,0,1.0,0,1.0
91,135,'1',0.04463,0.09421,0.00963,92.49,110.99,166.48,0.0,0.0,0.0,0.0,1,2,0.0,1,1.0,0,1.0,0,1.0,0,1.0
92,93,'1',8e-05,0.00083,0.0,50.0,60.0,90.0,0.0,0.0,0.0,0.0,1,2,0.0,1,1.0,0,1.0,0,1.0,0,1.0
92,105,'1',0.00064,0.00483,0.00047,185.52,222.62,333.93,0.0,0.0,0.0,0.0,1,1,0.0,1,1.0,0,1.0,0,1.0,0,1.0
92,140,'1',0.01289,0.04198,0.00436,120.0,144.0,216.0,0.0,0.0,0.0,0.0,1,2,0.0,1,1.0,0,1.0,0,1.0,0,1.0
94,119,'1',0.04152,0.07429,0.0071,51.83,62.2,93.29,0.0,0.0,0.0,0.0,1,2,0.0,1,1.0,0,1.0,0,1.0,0,1.0
94,127,'1',0.05017,0.08774,0.00837,39.0,46.8,70.2,0.0,0.0,0.0,0.0,1,1,0.0,1,1.0,0,1.0,0,1.0,0,1.0
95,104,'1',0.06926,0.12157,0.01174,78.0,93.6,140.4,0.0,0.0,0.0,0.0,1,2,0.0,1,1.0,0,1.0,0,1.0,0,1.0
95,138,'1',0.01818,0.05884,0.00612,120.0,144.0,216.0,0.0,0.0,0.0,0.0,1,2,0.0,1,1.0,0,1.0,0,1.0,0,1.0
96,97,'1',8e-05,0.00083,0.0,438.0,525.6,788.4,0.0,0.0,0.0,0.0,1,2,0.0,1,1.0,0,1.0,0,1.0,0,1.0
96,118,'1',0.0078,0.02641,0.00262,50.0,60.0,90.0,0.0,0.0,0.0,0.0,1,2,0.0,1,1.0,0,1.0,0,1.0,0,1.0
96,124,'1',0.0256,0.0784,0.00806,50.0,60.0,90.0,0.0,0.0,0.0,0.0,1,2,0.0,1,1.0,0,1.0,0,1.0,0,1.0
96,129,'1',0.00628,0.01058,0.00108,50.0,60.0,90.0,0.0,0.0,0.0,0.0,1,2,0.0,1,1.0,0,1.0,0,1.0,0,1.0
96,137,'1',0.0096,0.02474,0.00251,50.0,60.0,90.0,0.0,0.0,0.0,0.0,1,2,0.0,1,1.0,0,1.0,0,1.0,0,1.0
97,108,'1',0.00389,0.01319,0.00131,50.0,60.0,90.0,0.0,0.0,0.0,0.0,1,2,0.0,1,1.0,0,1.0,0,1.0,0,1.0
97,148,'1',0.01777,0.03157,0.00301,78.0,93.6,140.4,0.0,0.0,0.0,0.0,1,2,0.0,1,1.0,0,1.0,0,1.0,0,1.0
98,103,'1',0.0014,0.00463,0.00046,119.73,143.68,215.51,0.0,0.0,0.0,0.0,1,2,0.0,1,1.0,0,1.0,0,1.0,0,1.0
98,2179,'TL',0.0001,0.01,0.0,247.0,271.7,296.4,0.0,0.0,0.0,0.0,1,1,0.0,19,1.0,0,1.0,0,1.0,0,1.0
99,2172,'TL',0.0001,0.01,0.0,250.0,275.0,300.0,0.0,0.0,0.0,0.0,1,1,0.0,20,1.0,0,1.0,0,1.0,0,1.0
100,111,'1',0.06537,0.11488,0.01096,78.0,93.6,140.4,0.0,0.0,0.0,0.0,1,2,0.0,1,1.0,0,1.0,0,1.0,0,1.0
100,146,'1',0.03983,0.06967,0.00666,78.0,93.6,140.4,0.0,0.0,0.0,0.0,1,2,0.0,1,1.0,0,1.0,0,1.0,0,1.0
102,122,'1',0.01289,0.03372,0.00333,102.0,122.4,183.6,0.0,0.0,0.0,0.0,1,2,0.0,1,1.0,0,1.0,0,1.0,0,1.0
102,125,'1',0.00661,0.01826,0.00194,102.0,122.4,183.6,0.0,0.0,0.0,0.0,1,1,0.0,1,1.0,0,1.0,0,1.0,0,1.0
103,143,'1',0.05945,0.10398,0.00992,129.86,155.83,233.75,0.0,0.0,0.0,0.0,1,2,0.0,1,1.0,0,1.0,0,1.0,0,1.0
104,128,'1',0.03397,0.0581,0.00559,72.0,86.4,129.6,0.0,0.0,0.0,0.0,1,1,0.0,1,1.0,0,1.0,0,1.0,0,1.0
106,126,'1',0.04961,0.1096,0.01071,100.61,120.73,181.1,0.0,0.0,0.0,0.0,1,2,0.0,1,1.0,0,1.0,0,1.0,0,1.0
106,145,'1',0.00574,0.01944,0.00192,86.38,103.66,155.48,0.0,0.0,0.0,0.0,1,1,0.0,1,1.0,0,1.0,0,1.0,0,1.0
...